<?xml version="1.0" encoding="UTF-8"?>

<!-- generated on Fri Nov 22 17:13:17 2019 by SUMO od2trips Version 0.27.1
<?xml version="1.0" encoding="UTF-8"?>

<configuration xmlns:xsi="http://www.w3.org/2001/XMLSchema-instance" xsi:noNamespaceSchemaLocation="http://sumo.dlr.de/xsd/od2tripsConfiguration.xsd">

    <input>
        <taz-files value="alcalahenares_Emergency_pru_01.net.xml"/>
        <od-amitran-files value="alcalahenares_Emergency_pru_01.odmat.xml"/>
    </input>

    <output>
        <output-file value="alcalahenares_Emergency_pru_01.trip.xml"/>
        <ignore-vehicle-type value="true"/>
    </output>

    <defaults>
        <departlane value="best"/>
        <departspeed value="0"/>
    </defaults>

</configuration>
-->

<routes xmlns:xsi="http://www.w3.org/2001/XMLSchema-instance" xsi:noNamespaceSchemaLocation="http://sumo.dlr.de/xsd/routes_file.xsd">
    <trip id="3238" depart="0.77" from="91972498#1" to="95159050#1" fromTaz="1000" toTaz="7" departLane="best" departSpeed="0"/>
    <trip id="3726" depart="1.44" from="355558165#0" to="-123484050#1" fromTaz="2" toTaz="1000" departLane="best" departSpeed="0"/>
    <trip id="2680" depart="1.88" from="-23904519#0" to="126777129#2" fromTaz="1000" toTaz="5" departLane="best" departSpeed="0"/>
    <trip id="476" depart="2.75" from="125462782#0" to="29289637" fromTaz="1" toTaz="1000" departLane="best" departSpeed="0"/>
    <trip id="3304" depart="3.68" from="-28355500#0" to="95159050#1" fromTaz="1000" toTaz="7" departLane="best" departSpeed="0"/>
    <trip id="2539" depart="4.33" from="36249749#1" to="126777129#2" fromTaz="1000" toTaz="5" departLane="best" departSpeed="0"/>
    <trip id="442" depart="4.77" from="35576028" to="-75117816#5" fromTaz="1" toTaz="1000" departLane="best" departSpeed="0"/>
    <trip id="3263" depart="4.80" from="50170572#6" to="95159050#1" fromTaz="1000" toTaz="7" departLane="best" departSpeed="0"/>
    <trip id="3620" depart="5.03" from="75117868#1" to="26141600" fromTaz="1000" toTaz="8" departLane="best" departSpeed="0"/>
    <trip id="6170" depart="5.04" from="-26141600" to="23907600#0" fromTaz="8" toTaz="1000" departLane="best" departSpeed="0"/>
    <trip id="3806" depart="6.04" from="355558165#0" to="-154170703#1" fromTaz="2" toTaz="1000" departLane="best" departSpeed="0"/>
    <trip id="270" depart="6.14" from="35576028" to="90746328#4" fromTaz="1" toTaz="1000" departLane="best" departSpeed="0"/>
    <trip id="5753" depart="7.18" from="-95159050#1" to="-32906889#3" fromTaz="7" toTaz="1000" departLane="best" departSpeed="0"/>
    <trip id="1828" depart="7.55" from="409073638#5" to="23859154#1" fromTaz="1000" toTaz="2" departLane="best" departSpeed="0"/>
    <trip id="4605" depart="7.63" from="329573257" to="409770784" fromTaz="4" toTaz="1" departLane="best" departSpeed="0"/>
    <trip id="3028" depart="8.99" from="150036407#2" to="-345228944#0" fromTaz="1000" toTaz="6" departLane="best" departSpeed="0"/>
    <trip id="2849" depart="9.25" from="23971716#0" to="-345228944#0" fromTaz="1000" toTaz="6" departLane="best" departSpeed="0"/>
    <trip id="5980" depart="9.39" from="-26141600" to="409770784" fromTaz="8" toTaz="1" departLane="best" departSpeed="0"/>
    <trip id="2" depart="9.74" from="35576028" to="408880649#5" fromTaz="1" toTaz="1000" departLane="best" departSpeed="0"/>
    <trip id="1453" depart="10.16" from="179175851" to="95159041" fromTaz="1000" toTaz="1000" departLane="best" departSpeed="0"/>
    <trip id="1885" depart="10.87" from="76508332#0" to="96645524#1" fromTaz="1000" toTaz="3" departLane="best" departSpeed="0"/>
    <trip id="3561" depart="11.71" from="23904796#1" to="26141600" fromTaz="1000" toTaz="8" departLane="best" departSpeed="0"/>
    <trip id="1192" depart="11.98" from="-22726238#0" to="50170572#24" fromTaz="1000" toTaz="1000" departLane="best" departSpeed="0"/>
    <trip id="1798" depart="12.84" from="-32900655#1" to="23859154#1" fromTaz="1000" toTaz="2" departLane="best" departSpeed="0"/>
    <trip id="5154" depart="13.03" from="180049723#0" to="32403419#2" fromTaz="5" toTaz="1000" departLane="best" departSpeed="0"/>
    <trip id="148" depart="13.05" from="35576028" to="-191930374" fromTaz="1" toTaz="1000" departLane="best" departSpeed="0"/>
    <trip id="1322" depart="14.07" from="36248211" to="23907628#4" fromTaz="1000" toTaz="1000" departLane="best" departSpeed="0"/>
    <trip id="5620" depart="15.14" from="345228944#0" to="180049721#1" fromTaz="6" toTaz="5" departLane="best" departSpeed="0"/>
    <trip id="6134" depart="15.53" from="-26141600" to="-300511262#1" fromTaz="8" toTaz="1000" departLane="best" departSpeed="0"/>
    <trip id="5787" depart="15.74" from="-95159050#1" to="150036334" fromTaz="7" toTaz="1000" departLane="best" departSpeed="0"/>
    <trip id="2130" depart="15.90" from="218015774#4" to="96645524#1" fromTaz="1000" toTaz="3" departLane="best" departSpeed="0"/>
    <trip id="1130" depart="16.08" from="-97751406#1" to="256519084#1" fromTaz="1000" toTaz="1000" departLane="best" departSpeed="0"/>
    <trip id="80" depart="16.72" from="35576028" to="35932981#3" fromTaz="1" toTaz="1000" departLane="best" departSpeed="0"/>
    <trip id="480" depart="17.15" from="35576028" to="-218162400" fromTaz="1" toTaz="1000" departLane="best" departSpeed="0"/>
    <trip id="5952" depart="17.96" from="-26141600" to="409770784" fromTaz="8" toTaz="1" departLane="best" departSpeed="0"/>
    <trip id="3883" depart="18.30" from="355558165#0" to="91348401" fromTaz="2" toTaz="1000" departLane="best" departSpeed="0"/>
    <trip id="8" depart="18.39" from="35576028" to="4616748#2" fromTaz="1" toTaz="1000" departLane="best" departSpeed="0"/>
    <trip id="3904" depart="18.64" from="355558165#0" to="-75117816#0" fromTaz="2" toTaz="1000" departLane="best" departSpeed="0"/>
    <trip id="2140" depart="18.84" from="123484050#1" to="96645524#1" fromTaz="1000" toTaz="3" departLane="best" departSpeed="0"/>
    <trip id="2910" depart="18.86" from="50170604#4" to="-345228944#0" fromTaz="1000" toTaz="6" departLane="best" departSpeed="0"/>
    <trip id="3820" depart="18.94" from="355558165#0" to="123483968" fromTaz="2" toTaz="1000" departLane="best" departSpeed="0"/>
    <trip id="633" depart="18.97" from="355350993#0" to="409770784" fromTaz="1000" toTaz="1" departLane="best" departSpeed="0"/>
    <trip id="3090" depart="19.75" from="23957365#0" to="95159050#1" fromTaz="1000" toTaz="7" departLane="best" departSpeed="0"/>
    <trip id="335" depart="20.23" from="35576028" to="-409073641#0" fromTaz="1" toTaz="1000" departLane="best" departSpeed="0"/>
    <trip id="3565" depart="21.26" from="-90746321" to="26141600" fromTaz="1000" toTaz="8" departLane="best" departSpeed="0"/>
    <trip id="1738" depart="21.26" from="253086826#1" to="23859154#1" fromTaz="1000" toTaz="2" departLane="best" departSpeed="0"/>
    <trip id="5221" depart="21.43" from="22726045" to="-345228944#0" fromTaz="5" toTaz="6" departLane="best" departSpeed="0"/>
    <trip id="1336" depart="21.76" from="-61312536#2" to="36249924" fromTaz="1000" toTaz="1000" departLane="best" departSpeed="0"/>
    <trip id="911" depart="22.28" from="-345227290#3" to="32906932#2" fromTaz="1000" toTaz="1000" departLane="best" departSpeed="0"/>
    <trip id="4693" depart="22.32" from="97751437#0" to="409770784" fromTaz="4" toTaz="1" departLane="best" departSpeed="0"/>
    <trip id="3915" depart="22.42" from="355558165#0" to="76508312#0" fromTaz="2" toTaz="1000" departLane="best" departSpeed="0"/>
    <trip id="1952" depart="22.46" from="-22933163" to="96645524#1" fromTaz="1000" toTaz="3" departLane="best" departSpeed="0"/>
    <trip id="2554" depart="22.69" from="75117826#2" to="180049721#1" fromTaz="1000" toTaz="5" departLane="best" departSpeed="0"/>
    <trip id="3308" depart="23.28" from="-123483728#3" to="95159050#1" fromTaz="1000" toTaz="7" departLane="best" departSpeed="0"/>
    <trip id="4498" depart="23.39" from="4616750#0" to="23859154#1" fromTaz="3" toTaz="2" departLane="best" departSpeed="0"/>
    <trip id="5914" depart="24.19" from="-95159050#1" to="23859154#1" fromTaz="7" toTaz="2" departLane="best" departSpeed="0"/>
    <trip id="4907" depart="24.61" from="97751437#0" to="23859154#1" fromTaz="4" toTaz="2" departLane="best" departSpeed="0"/>
    <trip id="3709" depart="24.70" from="355558165#0" to="-123484170#1" fromTaz="2" toTaz="1000" departLane="best" departSpeed="0"/>
    <trip id="531" depart="24.98" from="93098934#0" to="409770784" fromTaz="1000" toTaz="1" departLane="best" departSpeed="0"/>
    <trip id="6137" depart="25.54" from="-26141600" to="-28359590#2" fromTaz="8" toTaz="1000" departLane="best" departSpeed="0"/>
    <trip id="1486" depart="25.86" from="103584184#0" to="90746328#2" fromTaz="1000" toTaz="1000" departLane="best" departSpeed="0"/>
    <trip id="3110" depart="26.31" from="23907578#6" to="95159050#1" fromTaz="1000" toTaz="7" departLane="best" departSpeed="0"/>
    <trip id="2886" depart="27.26" from="23971646#0" to="-345228944#0" fromTaz="1000" toTaz="6" departLane="best" departSpeed="0"/>
    <trip id="56" depart="27.48" from="35576028" to="-120510395" fromTaz="1" toTaz="1000" departLane="best" departSpeed="0"/>
    <trip id="5399" depart="27.62" from="345228944#0" to="174188604#3" fromTaz="6" toTaz="1000" departLane="best" departSpeed="0"/>
    <trip id="4608" depart="28.04" from="97751437#0" to="409770784" fromTaz="4" toTaz="1" departLane="best" departSpeed="0"/>
    <trip id="3335" depart="28.73" from="-23919497" to="95159050#1" fromTaz="1000" toTaz="7" departLane="best" departSpeed="0"/>
    <trip id="5949" depart="28.74" from="-95159050#1" to="23859154#1" fromTaz="7" toTaz="2" departLane="best" departSpeed="0"/>
    <trip id="809" depart="29.15" from="-357265153#3" to="192453746#2" fromTaz="1000" toTaz="1000" departLane="best" departSpeed="0"/>
    <trip id="4566" depart="29.39" from="4616750#0" to="66848920" fromTaz="3" toTaz="4" departLane="best" departSpeed="0"/>
    <trip id="963" depart="29.50" from="-156663597#1" to="244834835" fromTaz="1000" toTaz="1000" departLane="best" departSpeed="0"/>
    <trip id="2989" depart="29.89" from="22892070#0" to="-345228944#0" fromTaz="1000" toTaz="6" departLane="best" departSpeed="0"/>
    <trip id="2109" depart="30.03" from="-405649771" to="96645524#1" fromTaz="1000" toTaz="3" departLane="best" departSpeed="0"/>
    <trip id="4966" depart="30.26" from="329573257" to="96645524#1" fromTaz="4" toTaz="3" departLane="best" departSpeed="0"/>
    <trip id="1660" depart="30.26" from="-23957285#2" to="23859154#1" fromTaz="1000" toTaz="2" departLane="best" departSpeed="0"/>
    <trip id="5954" depart="31.14" from="-26141600" to="409770784" fromTaz="8" toTaz="1" departLane="best" departSpeed="0"/>
    <trip id="5135" depart="31.82" from="180049723#0" to="32559572#0" fromTaz="5" toTaz="1000" departLane="best" departSpeed="0"/>
    <trip id="1160" depart="32.14" from="-95159041" to="-35968160#4" fromTaz="1000" toTaz="1000" departLane="best" departSpeed="0"/>
    <trip id="6068" depart="34.38" from="-26141600" to="35932981#3" fromTaz="8" toTaz="1000" departLane="best" departSpeed="0"/>
    <trip id="5467" depart="35.30" from="345228944#0" to="23859154#1" fromTaz="6" toTaz="2" departLane="best" departSpeed="0"/>
    <trip id="4086" depart="35.81" from="355558165#0" to="106134388#1" fromTaz="2" toTaz="1000" departLane="best" departSpeed="0"/>
    <trip id="1077" depart="36.35" from="50170571#1" to="75123293#8" fromTaz="1000" toTaz="1000" departLane="best" departSpeed="0"/>
    <trip id="2953" depart="37.57" from="23907587#2" to="-345228944#0" fromTaz="1000" toTaz="6" departLane="best" departSpeed="0"/>
    <trip id="2496" depart="37.59" from="-23957558#0" to="126777129#2" fromTaz="1000" toTaz="5" departLane="best" departSpeed="0"/>
    <trip id="439" depart="37.74" from="35576028" to="75810133#1" fromTaz="1" toTaz="1000" departLane="best" departSpeed="0"/>
    <trip id="2569" depart="37.96" from="-36250199" to="180049721#1" fromTaz="1000" toTaz="5" departLane="best" departSpeed="0"/>
    <trip id="4342" depart="38.07" from="4616750#0" to="-28355552#5" fromTaz="3" toTaz="1000" departLane="best" departSpeed="0"/>
    <trip id="1582" depart="38.67" from="32900450" to="23859154#1" fromTaz="1000" toTaz="2" departLane="best" departSpeed="0"/>
    <trip id="873" depart="39.29" from="-71213415#2" to="218015775" fromTaz="1000" toTaz="1000" departLane="best" departSpeed="0"/>
    <trip id="4473" depart="39.79" from="4616750#0" to="23859154#1" fromTaz="3" toTaz="2" departLane="best" departSpeed="0"/>
    <trip id="4177" depart="40.20" from="4616750#0" to="409770784" fromTaz="3" toTaz="1" departLane="best" departSpeed="0"/>
    <trip id="6173" depart="40.88" from="-26141600" to="23957264#0" fromTaz="8" toTaz="1000" departLane="best" departSpeed="0"/>
    <trip id="3455" depart="41.07" from="36247684#0" to="26141600" fromTaz="1000" toTaz="8" departLane="best" departSpeed="0"/>
    <trip id="2832" depart="42.24" from="-91348367#4" to="-345228944#0" fromTaz="1000" toTaz="6" departLane="best" departSpeed="0"/>
    <trip id="3091" depart="42.53" from="-443446515#2" to="95159050#1" fromTaz="1000" toTaz="7" departLane="best" departSpeed="0"/>
    <trip id="2900" depart="42.56" from="19916361#2" to="-345228944#0" fromTaz="1000" toTaz="6" departLane="best" departSpeed="0"/>
    <trip id="2175" depart="42.68" from="23957345#5" to="66848920" fromTaz="1000" toTaz="4" departLane="best" departSpeed="0"/>
    <trip id="6189" depart="43.72" from="-26141600" to="-123484158#1" fromTaz="8" toTaz="1000" departLane="best" departSpeed="0"/>
    <trip id="4652" depart="43.82" from="329573257" to="409770784" fromTaz="4" toTaz="1" departLane="best" departSpeed="0"/>
    <trip id="5362" depart="44.44" from="345228944#0" to="32933482#3" fromTaz="6" toTaz="1000" departLane="best" departSpeed="0"/>
    <trip id="5024" depart="44.45" from="97751437#0" to="96645524#1" fromTaz="4" toTaz="3" departLane="best" departSpeed="0"/>
    <trip id="1036" depart="44.80" from="242703040#4" to="32559675#3" fromTaz="1000" toTaz="1000" departLane="best" departSpeed="0"/>
    <trip id="1185" depart="44.99" from="-50170572#6" to="256644253#3" fromTaz="1000" toTaz="1000" departLane="best" departSpeed="0"/>
    <trip id="2312" depart="45.59" from="91972498#3" to="66848920" fromTaz="1000" toTaz="4" departLane="best" departSpeed="0"/>
    <trip id="3160" depart="46.80" from="-91348367#1" to="95159050#1" fromTaz="1000" toTaz="7" departLane="best" departSpeed="0"/>
    <trip id="485" depart="46.90" from="35576028" to="23905117#1" fromTaz="1" toTaz="1000" departLane="best" departSpeed="0"/>
    <trip id="3031" depart="46.93" from="75482916#3" to="-345228944#0" fromTaz="1000" toTaz="6" departLane="best" departSpeed="0"/>
    <trip id="88" depart="47.01" from="125462782#0" to="-164049083#9" fromTaz="1" toTaz="1000" departLane="best" departSpeed="0"/>
    <trip id="653" depart="47.95" from="-123483762#3" to="409770784" fromTaz="1000" toTaz="1" departLane="best" departSpeed="0"/>
    <trip id="808" depart="48.37" from="28359585#1" to="-158350660" fromTaz="1000" toTaz="1000" departLane="best" departSpeed="0"/>
    <trip id="4544" depart="48.42" from="4616750#0" to="409863378#2" fromTaz="3" toTaz="4" departLane="best" departSpeed="0"/>
    <trip id="5053" depart="48.47" from="22726045" to="23904540#1" fromTaz="5" toTaz="1000" departLane="best" departSpeed="0"/>
    <trip id="4163" depart="48.96" from="4616750#0" to="409770784" fromTaz="3" toTaz="1" departLane="best" departSpeed="0"/>
    <trip id="1998" depart="49.06" from="-331153620#1" to="96645524#1" fromTaz="1000" toTaz="3" departLane="best" departSpeed="0"/>
    <trip id="5921" depart="49.34" from="-95159050#1" to="23859154#1" fromTaz="7" toTaz="2" departLane="best" departSpeed="0"/>
    <trip id="2421" depart="49.53" from="355558165#1" to="66848920" fromTaz="1000" toTaz="4" departLane="best" departSpeed="0"/>
    <trip id="3336" depart="49.80" from="164049083#13" to="95159050#1" fromTaz="1000" toTaz="7" departLane="best" departSpeed="0"/>
    <trip id="1725" depart="49.85" from="28359593#0" to="23859154#1" fromTaz="1000" toTaz="2" departLane="best" departSpeed="0"/>
    <trip id="5124" depart="50.25" from="180049723#0" to="-197934971#4" fromTaz="5" toTaz="1000" departLane="best" departSpeed="0"/>
    <trip id="144" depart="50.60" from="35576028" to="254312690" fromTaz="1" toTaz="1000" departLane="best" departSpeed="0"/>
    <trip id="2134" depart="50.82" from="409076845" to="96645524#1" fromTaz="1000" toTaz="3" departLane="best" departSpeed="0"/>
    <trip id="4176" depart="50.83" from="4616750#0" to="409770784" fromTaz="3" toTaz="1" departLane="best" departSpeed="0"/>
    <trip id="6071" depart="51.24" from="-26141600" to="254816241#4" fromTaz="8" toTaz="1000" departLane="best" departSpeed="0"/>
    <trip id="1209" depart="51.33" from="36249916#1" to="-28355559#1" fromTaz="1000" toTaz="1000" departLane="best" departSpeed="0"/>
    <trip id="2618" depart="52.03" from="97286260#1" to="180049721#1" fromTaz="1000" toTaz="5" departLane="best" departSpeed="0"/>
    <trip id="3605" depart="52.45" from="28343686#7" to="26141600" fromTaz="1000" toTaz="8" departLane="best" departSpeed="0"/>
    <trip id="2646" depart="52.62" from="23957432#1" to="126777129#2" fromTaz="1000" toTaz="5" departLane="best" departSpeed="0"/>
    <trip id="3973" depart="52.64" from="355558165#0" to="-254816246" fromTaz="2" toTaz="1000" departLane="best" departSpeed="0"/>
    <trip id="3001" depart="53.26" from="-23957305#1" to="-345228944#0" fromTaz="1000" toTaz="6" departLane="best" departSpeed="0"/>
    <trip id="3186" depart="53.44" from="-409262277#1" to="95159050#1" fromTaz="1000" toTaz="7" departLane="best" departSpeed="0"/>
    <trip id="1403" depart="53.94" from="50170592" to="-50170584#1" fromTaz="1000" toTaz="1000" departLane="best" departSpeed="0"/>
    <trip id="4133" depart="54.11" from="355558165#0" to="75689698#0" fromTaz="2" toTaz="1000" departLane="best" departSpeed="0"/>
    <trip id="2205" depart="54.24" from="-345227289#0" to="66848920" fromTaz="1000" toTaz="4" departLane="best" departSpeed="0"/>
    <trip id="3018" depart="54.56" from="-24038130#2" to="-345228944#0" fromTaz="1000" toTaz="6" departLane="best" departSpeed="0"/>
    <trip id="3313" depart="55.11" from="75810152" to="95159050#1" fromTaz="1000" toTaz="7" departLane="best" departSpeed="0"/>
    <trip id="1111" depart="55.39" from="-75117887#2" to="-28355604#0" fromTaz="1000" toTaz="1000" departLane="best" departSpeed="0"/>
    <trip id="4" depart="55.65" from="35576028" to="-150036371#1" fromTaz="1" toTaz="1000" departLane="best" departSpeed="0"/>
    <trip id="2330" depart="55.81" from="23957428#1" to="409863378#2" fromTaz="1000" toTaz="4" departLane="best" departSpeed="0"/>
    <trip id="2852" depart="56.04" from="-28343728#1" to="-345228944#0" fromTaz="1000" toTaz="6" departLane="best" departSpeed="0"/>
    <trip id="529" depart="56.51" from="-197934837#5" to="409770784" fromTaz="1000" toTaz="1" departLane="best" departSpeed="0"/>
    <trip id="5760" depart="56.57" from="-95159050#1" to="-36243994#1" fromTaz="7" toTaz="1000" departLane="best" departSpeed="0"/>
    <trip id="802" depart="57.01" from="76508294#0" to="23971606#3" fromTaz="1000" toTaz="1000" departLane="best" departSpeed="0"/>
    <trip id="628" depart="58.02" from="-123484163#2" to="409770784" fromTaz="1000" toTaz="1" departLane="best" departSpeed="0"/>
    <trip id="384" depart="58.23" from="35576028" to="174188606#5" fromTaz="1" toTaz="1000" departLane="best" departSpeed="0"/>
    <trip id="5310" depart="58.57" from="345228944#0" to="28343716#0" fromTaz="6" toTaz="1000" departLane="best" departSpeed="0"/>
    <trip id="2304" depart="59.75" from="-23971582#2" to="409863378#2" fromTaz="1000" toTaz="4" departLane="best" departSpeed="0"/>
    <trip id="797" depart="60.19" from="90746328#4" to="409770784" fromTaz="1000" toTaz="1" departLane="best" departSpeed="0"/>
    <trip id="2444" depart="60.82" from="313495201" to="66848920" fromTaz="1000" toTaz="4" departLane="best" departSpeed="0"/>
    <trip id="1464" depart="60.84" from="-50170585#1" to="395906341#1" fromTaz="1000" toTaz="1000" departLane="best" departSpeed="0"/>
    <trip id="4353" depart="61.12" from="4616750#0" to="38610855#1" fromTaz="3" toTaz="1000" departLane="best" departSpeed="0"/>
    <trip id="903" depart="62.26" from="-50170593" to="125233797" fromTaz="1000" toTaz="1000" departLane="best" departSpeed="0"/>
    <trip id="3341" depart="62.30" from="32402199#1" to="95159050#1" fromTaz="1000" toTaz="7" departLane="best" departSpeed="0"/>
    <trip id="4719" depart="62.45" from="329573257" to="249995216#1" fromTaz="4" toTaz="1000" departLane="best" departSpeed="0"/>
    <trip id="644" depart="63.32" from="35968161" to="409770784" fromTaz="1000" toTaz="1" departLane="best" departSpeed="0"/>
    <trip id="5976" depart="63.60" from="-26141600" to="409770784" fromTaz="8" toTaz="1" departLane="best" departSpeed="0"/>
    <trip id="5786" depart="64.28" from="-95159050#1" to="-69966120#2" fromTaz="7" toTaz="1000" departLane="best" departSpeed="0"/>
    <trip id="1937" depart="64.53" from="165660899#7" to="96645524#1" fromTaz="1000" toTaz="3" departLane="best" departSpeed="0"/>
    <trip id="4233" depart="65.98" from="4616750#0" to="409770784" fromTaz="3" toTaz="1" departLane="best" departSpeed="0"/>
    <trip id="3725" depart="66.35" from="355558165#0" to="-32907255#2" fromTaz="2" toTaz="1000" departLane="best" departSpeed="0"/>
    <trip id="1301" depart="66.73" from="35932981#0" to="50170604#0" fromTaz="1000" toTaz="1000" departLane="best" departSpeed="0"/>
    <trip id="2016" depart="66.85" from="123484111#4" to="96645524#1" fromTaz="1000" toTaz="3" departLane="best" departSpeed="0"/>
    <trip id="743" depart="67.30" from="-154170701" to="409770784" fromTaz="1000" toTaz="1" departLane="best" departSpeed="0"/>
    <trip id="3320" depart="67.39" from="23858749#4" to="95159050#1" fromTaz="1000" toTaz="7" departLane="best" departSpeed="0"/>
    <trip id="2268" depart="67.56" from="85526063" to="409863378#2" fromTaz="1000" toTaz="4" departLane="best" departSpeed="0"/>
    <trip id="5219" depart="67.98" from="180049723#0" to="-345228944#0" fromTaz="5" toTaz="6" departLane="best" departSpeed="0"/>
    <trip id="1661" depart="68.69" from="179175827#6" to="23859154#1" fromTaz="1000" toTaz="2" departLane="best" departSpeed="0"/>
    <trip id="1902" depart="69.62" from="-409073650#2" to="96645524#1" fromTaz="1000" toTaz="3" departLane="best" departSpeed="0"/>
    <trip id="4582" depart="69.85" from="4616750#0" to="409863378#2" fromTaz="3" toTaz="4" departLane="best" departSpeed="0"/>
    <trip id="3358" depart="70.47" from="32402199#3" to="26141600" fromTaz="1000" toTaz="8" departLane="best" departSpeed="0"/>
    <trip id="4728" depart="70.58" from="329573257" to="75117918#1" fromTaz="4" toTaz="1000" departLane="best" departSpeed="0"/>
    <trip id="1529" depart="70.69" from="-76508308#0" to="150036376#4" fromTaz="1000" toTaz="1000" departLane="best" departSpeed="0"/>
    <trip id="505" depart="70.72" from="23957432#0" to="409770784" fromTaz="1000" toTaz="1" departLane="best" departSpeed="0"/>
    <trip id="3792" depart="71.40" from="355558165#0" to="77058975#0" fromTaz="2" toTaz="1000" departLane="best" departSpeed="0"/>
    <trip id="4848" depart="71.55" from="97751437#0" to="123483857#1" fromTaz="4" toTaz="1000" departLane="best" departSpeed="0"/>
    <trip id="3085" depart="71.75" from="-23957282" to="95159050#1" fromTaz="1000" toTaz="7" departLane="best" departSpeed="0"/>
    <trip id="5480" depart="72.75" from="345228944#0" to="23859154#1" fromTaz="6" toTaz="2" departLane="best" departSpeed="0"/>
    <trip id="898" depart="72.86" from="123483814#5" to="-75117824#3" fromTaz="1000" toTaz="1000" departLane="best" departSpeed="0"/>
    <trip id="4579" depart="73.01" from="4616750#0" to="66848920" fromTaz="3" toTaz="4" departLane="best" departSpeed="0"/>
    <trip id="1831" depart="73.50" from="85892135#3" to="23859154#1" fromTaz="1000" toTaz="2" departLane="best" departSpeed="0"/>
    <trip id="5252" depart="73.58" from="180049723#0" to="-345228944#0" fromTaz="5" toTaz="6" departLane="best" departSpeed="0"/>
    <trip id="4559" depart="73.85" from="4616750#0" to="409863378#2" fromTaz="3" toTaz="4" departLane="best" departSpeed="0"/>
    <trip id="3314" depart="74.51" from="-218015778#0" to="95159050#1" fromTaz="1000" toTaz="7" departLane="best" departSpeed="0"/>
    <trip id="3716" depart="75.03" from="355558165#0" to="218162392#1" fromTaz="2" toTaz="1000" departLane="best" departSpeed="0"/>
    <trip id="3496" depart="75.42" from="205623592#0" to="26141600" fromTaz="1000" toTaz="8" departLane="best" departSpeed="0"/>
    <trip id="603" depart="76.05" from="118195326#3" to="409770784" fromTaz="1000" toTaz="1" departLane="best" departSpeed="0"/>
    <trip id="5096" depart="76.46" from="180049723#0" to="-75117926#3" fromTaz="5" toTaz="1000" departLane="best" departSpeed="0"/>
    <trip id="3362" depart="76.48" from="32933615#2" to="26141600" fromTaz="1000" toTaz="8" departLane="best" departSpeed="0"/>
    <trip id="3625" depart="76.65" from="23907599#1" to="26141600" fromTaz="1000" toTaz="8" departLane="best" departSpeed="0"/>
    <trip id="1983" depart="77.29" from="-28343683#6" to="96645524#1" fromTaz="1000" toTaz="3" departLane="best" departSpeed="0"/>
    <trip id="2776" depart="77.73" from="85526616#1" to="-345228944#0" fromTaz="1000" toTaz="6" departLane="best" departSpeed="0"/>
    <trip id="3466" depart="77.78" from="-150036376#0" to="26141600" fromTaz="1000" toTaz="8" departLane="best" departSpeed="0"/>
    <trip id="357" depart="77.89" from="125462782#0" to="23907583#3" fromTaz="1" toTaz="1000" departLane="best" departSpeed="0"/>
    <trip id="5214" depart="78.51" from="180049723#0" to="-345228944#0" fromTaz="5" toTaz="6" departLane="best" departSpeed="0"/>
    <trip id="3723" depart="78.53" from="355558165#0" to="75117862#3" fromTaz="2" toTaz="1000" departLane="best" departSpeed="0"/>
    <trip id="3920" depart="79.19" from="355558165#0" to="23907639#0" fromTaz="2" toTaz="1000" departLane="best" departSpeed="0"/>
    <trip id="5439" depart="79.19" from="345228944#0" to="-409073647#0" fromTaz="6" toTaz="1000" departLane="best" departSpeed="0"/>
    <trip id="277" depart="79.84" from="35576028" to="296704315#1" fromTaz="1" toTaz="1000" departLane="best" departSpeed="0"/>
    <trip id="3788" depart="80.40" from="355558165#0" to="-156663597#1" fromTaz="2" toTaz="1000" departLane="best" departSpeed="0"/>
    <trip id="4723" depart="81.49" from="329573257" to="28359619#2" fromTaz="4" toTaz="1000" departLane="best" departSpeed="0"/>
    <trip id="1295" depart="81.52" from="123800360" to="23904701#4" fromTaz="1000" toTaz="1000" departLane="best" departSpeed="0"/>
    <trip id="1490" depart="81.55" from="23957370#2" to="32900603" fromTaz="1000" toTaz="1000" departLane="best" departSpeed="0"/>
    <trip id="3240" depart="81.55" from="32907397#1" to="95159050#1" fromTaz="1000" toTaz="7" departLane="best" departSpeed="0"/>
    <trip id="5852" depart="82.06" from="-95159050#1" to="227353607#1" fromTaz="7" toTaz="1000" departLane="best" departSpeed="0"/>
    <trip id="339" depart="82.30" from="35576028" to="164049083#10" fromTaz="1" toTaz="1000" departLane="best" departSpeed="0"/>
    <trip id="2871" depart="82.31" from="23907673#1" to="-345228944#0" fromTaz="1000" toTaz="6" departLane="best" departSpeed="0"/>
    <trip id="2651" depart="83.37" from="26141615" to="180049721#1" fromTaz="1000" toTaz="5" departLane="best" departSpeed="0"/>
    <trip id="4147" depart="84.36" from="355558165#0" to="35968925#0" fromTaz="2" toTaz="1000" departLane="best" departSpeed="0"/>
    <trip id="3573" depart="84.60" from="-76508308#1" to="26141600" fromTaz="1000" toTaz="8" departLane="best" departSpeed="0"/>
    <trip id="5405" depart="85.40" from="345228944#0" to="218015770#1" fromTaz="6" toTaz="1000" departLane="best" departSpeed="0"/>
    <trip id="1478" depart="85.61" from="123483978#1" to="150036356#0" fromTaz="1000" toTaz="1000" departLane="best" departSpeed="0"/>
    <trip id="1542" depart="86.41" from="150036371#3" to="158346183" fromTaz="1000" toTaz="1000" departLane="best" departSpeed="0"/>
    <trip id="2298" depart="86.44" from="-248061779" to="66848920" fromTaz="1000" toTaz="4" departLane="best" departSpeed="0"/>
    <trip id="2088" depart="87.20" from="123021266#1" to="96645524#1" fromTaz="1000" toTaz="3" departLane="best" departSpeed="0"/>
    <trip id="4510" depart="88.45" from="4616750#0" to="409863378#2" fromTaz="3" toTaz="4" departLane="best" departSpeed="0"/>
    <trip id="170" depart="88.60" from="35576028" to="-323877905#0" fromTaz="1" toTaz="1000" departLane="best" departSpeed="0"/>
    <trip id="5842" depart="88.60" from="-95159050#1" to="-77702064#0" fromTaz="7" toTaz="1000" departLane="best" departSpeed="0"/>
    <trip id="697" depart="88.88" from="76508306" to="409770784" fromTaz="1000" toTaz="1" departLane="best" departSpeed="0"/>
    <trip id="844" depart="89.14" from="-313803676#2" to="150036422" fromTaz="1000" toTaz="1000" departLane="best" departSpeed="0"/>
    <trip id="582" depart="89.32" from="106134332#1" to="409770784" fromTaz="1000" toTaz="1" departLane="best" departSpeed="0"/>
    <trip id="4968" depart="89.66" from="329573257" to="96645524#1" fromTaz="4" toTaz="3" departLane="best" departSpeed="0"/>
    <trip id="5851" depart="89.67" from="-95159050#1" to="-256585722#0" fromTaz="7" toTaz="1000" departLane="best" departSpeed="0"/>
    <trip id="440" depart="89.91" from="35576028" to="-339795792" fromTaz="1" toTaz="1000" departLane="best" departSpeed="0"/>
    <trip id="4889" depart="90.16" from="329573257" to="23859154#1" fromTaz="4" toTaz="2" departLane="best" departSpeed="0"/>
    <trip id="4267" depart="90.31" from="4616750#0" to="-129144261" fromTaz="3" toTaz="1000" departLane="best" departSpeed="0"/>