<?xml version="1.0" encoding="UTF-8"?>

<!-- generated on Mon Nov 28 17:04:16 2016 by SUMO duarouter Version 0.27.1
<?xml version="1.0" encoding="UTF-8"?>

<configuration xmlns:xsi="http://www.w3.org/2001/XMLSchema-instance" xsi:noNamespaceSchemaLocation="http://sumo.dlr.de/xsd/duarouterConfiguration.xsd">

    <input>
        <net-file value="radial16_XS_Bastra_rand2x2_timeALL_fulltraffic_logit20.net.xml"/>
        <trip-files value="radial16_XS_Bastra_rand2x2_timeALL_fulltraffic_logit20.trip.xml"/>
    </input>

    <output>
        <output-file value="radial16_XS_Bastra_rand2x2_timeALL_fulltraffic_logit20.routes.xml"/>
    </output>

    <processing>
        <remove-loops value="true"/>
    </processing>

    <time>
        <begin value="0"/>
        <end value="1000"/>
    </time>

</configuration>
-->

<routes xmlns:xsi="http://www.w3.org/2001/XMLSchema-instance" xsi:noNamespaceSchemaLocation="http://sumo.dlr.de/xsd/routes_file.xsd">
    <vehicle id="74" depart="0.56" departLane="best" departSpeed="0.00" fromTaz="1" toTaz="4">
        <route edges="5/16to5/15 5/15to4/15 4/15to3/15 3/15to2/15 2/15to1/15 1/15to1/16"/>
    </vehicle>
    <vehicle id="65" depart="0.79" departLane="best" departSpeed="0.00" fromTaz="1" toTaz="4">
        <route edges="5/16to5/15 5/15to4/15 4/15to3/15 3/15to2/15 2/15to1/15 1/15to1/16"/>
    </vehicle>
    <vehicle id="690" depart="0.90" departLane="best" departSpeed="0.00" fromTaz="4" toTaz="1">
        <route edges="9/16to9/15 9/15to10/15 10/15to11/15 11/15to12/15 12/15to13/15 13/15to13/16"/>
    </vehicle>
    <vehicle id="145" depart="1.83" departLane="best" departSpeed="0.00" fromTaz="1" toTaz="4">
        <route edges="5/16to5/15 5/15to4/15 4/15to3/15 3/15to2/15 2/15to1/15 1/15to1/16"/>
    </vehicle>
    <vehicle id="293" depart="2.83" departLane="best" departSpeed="0.00" fromTaz="2" toTaz="3">
        <route edges="1/16to1/15 1/15to2/15 2/15to3/15 3/15to4/15 4/15to5/15 5/15to5/16"/>
    </vehicle>
    <vehicle id="751" depart="3.14" departLane="best" departSpeed="0.00" fromTaz="4" toTaz="1">
        <route edges="9/16to9/15 9/15to10/15 10/15to11/15 11/15to12/15 12/15to13/15 13/15to13/16"/>
    </vehicle>
    <vehicle id="539" depart="4.77" departLane="best" departSpeed="0.00" fromTaz="3" toTaz="2">
        <route edges="13/16to13/15 13/15to12/15 12/15to11/15 11/15to10/15 10/15to9/15 9/15to9/16"/>
    </vehicle>
    <vehicle id="771" depart="5.27" departLane="best" departSpeed="0.00" fromTaz="4" toTaz="1">
        <route edges="9/16to9/15 9/15to10/15 10/15to11/15 11/15to12/15 12/15to13/15 13/15to13/16"/>
    </vehicle>
    <vehicle id="941" depart="6.74" departLane="best" departSpeed="0.00" fromTaz="99" toTaz="99">
        <route edges="4/8to5/8 5/8to5/7 5/7to5/6 5/6to5/5 5/5to5/4 5/4to5/3 5/3to5/2 5/2to5/1 5/1to6/1 6/1to7/1 7/1to8/1"/>
    </vehicle>
    <vehicle id="559" depart="7.29" departLane="best" departSpeed="0.00" fromTaz="3" toTaz="2">
        <route edges="13/16to13/15 13/15to12/15 12/15to11/15 11/15to10/15 10/15to9/15 9/15to9/16"/>
    </vehicle>
    <vehicle id="615" depart="8.32" departLane="best" departSpeed="0.00" fromTaz="4" toTaz="1">
        <route edges="9/16to9/15 9/15to10/15 10/15to11/15 11/15to12/15 12/15to13/15 13/15to13/16"/>
    </vehicle>
    <vehicle id="1092" depart="9.53" departLane="best" departSpeed="0.00" fromTaz="99" toTaz="99">
        <route edges="4/8to4/7 4/7to5/7 5/7to6/7 6/7to7/7 7/7to8/7 8/7to9/7 9/7to10/7 10/7to10/6 10/6to10/5 10/5to11/5"/>
    </vehicle>
    <vehicle id="735" depart="12.32" departLane="best" departSpeed="0.00" fromTaz="4" toTaz="1">
        <route edges="9/16to9/15 9/15to10/15 10/15to11/15 11/15to12/15 12/15to13/15 13/15to13/16"/>
    </vehicle>
    <vehicle id="142" depart="12.90" departLane="best" departSpeed="0.00" fromTaz="1" toTaz="4">
        <route edges="5/16to5/15 5/15to4/15 4/15to3/15 3/15to2/15 2/15to1/15 1/15to1/16"/>
    </vehicle>
    <vehicle id="1236" depart="15.22" departLane="best" departSpeed="0.00" fromTaz="99" toTaz="99">
        <route edges="5/14to5/15 5/15to4/15 4/15to3/15 3/15to3/14 3/14to3/13 3/13to3/12 3/12to3/11 3/11to3/10 3/10to3/9 3/9to3/8 3/8to3/7 3/7to3/6 3/6to3/5 3/5to3/4 3/4to2/4"/>
    </vehicle>
    <vehicle id="855" depart="15.70" departLane="best" departSpeed="0.00" fromTaz="99" toTaz="99">
        <route edges="12/4to13/4 13/4to14/4 14/4to15/4 15/4to16/4 16/4to1/4 1/4to1/5 1/5to1/6 1/6to2/6 2/6to3/6"/>
    </vehicle>
    <vehicle id="137" depart="15.72" departLane="best" departSpeed="0.00" fromTaz="1" toTaz="4">
        <route edges="5/16to5/15 5/15to4/15 4/15to3/15 3/15to2/15 2/15to1/15 1/15to1/16"/>
    </vehicle>
    <vehicle id="646" depart="16.93" departLane="best" departSpeed="0.00" fromTaz="4" toTaz="1">
        <route edges="9/16to9/15 9/15to10/15 10/15to11/15 11/15to12/15 12/15to13/15 13/15to13/16"/>
    </vehicle>
    <vehicle id="467" depart="17.18" departLane="best" departSpeed="0.00" fromTaz="3" toTaz="2">
        <route edges="13/16to13/15 13/15to12/15 12/15to11/15 11/15to10/15 10/15to9/15 9/15to9/16"/>
    </vehicle>
    <vehicle id="1025" depart="17.46" departLane="best" departSpeed="0.00" fromTaz="99" toTaz="99">
        <route edges="8/15to7/15 7/15to6/15 6/15to6/14 6/14to6/13 6/13to6/12 6/12to6/11 6/11to7/11"/>
    </vehicle>
    <vehicle id="176" depart="17.81" departLane="best" departSpeed="0.00" fromTaz="1" toTaz="4">
        <route edges="5/16to5/15 5/15to4/15 4/15to3/15 3/15to2/15 2/15to1/15 1/15to1/16"/>
    </vehicle>
    <vehicle id="919" depart="18.13" departLane="best" departSpeed="0.00" fromTaz="99" toTaz="99">
        <route edges="4/5to3/5 3/5to3/6 3/6to3/7 3/7to3/8 3/8to3/9 3/9to4/9 4/9to4/8"/>
    </vehicle>
    <vehicle id="10" depart="18.39" departLane="best" departSpeed="0.00" fromTaz="1" toTaz="4">
        <route edges="5/16to5/15 5/15to4/15 4/15to3/15 3/15to2/15 2/15to1/15 1/15to1/16"/>
    </vehicle>
    <vehicle id="75" depart="18.68" departLane="best" departSpeed="0.00" fromTaz="1" toTaz="4">
        <route edges="5/16to5/15 5/15to4/15 4/15to3/15 3/15to2/15 2/15to1/15 1/15to1/16"/>
    </vehicle>
    <vehicle id="838" depart="18.78" departLane="best" departSpeed="0.00" fromTaz="99" toTaz="99">
        <route edges="9/8to10/8 10/8to10/7 10/7to10/6 10/6to11/6 11/6to12/6 12/6to13/6"/>
    </vehicle>
    <vehicle id="767" depart="20.47" departLane="best" departSpeed="0.00" fromTaz="4" toTaz="1">
        <route edges="9/16to9/15 9/15to10/15 10/15to11/15 11/15to12/15 12/15to13/15 13/15to13/16"/>
    </vehicle>
    <vehicle id="1130" depart="21.05" departLane="best" departSpeed="0.00" fromTaz="99" toTaz="99">
        <route edges="6/16to5/16 5/16to5/15 5/15to5/14 5/14to6/14 6/14to7/14 7/14to8/14"/>
    </vehicle>
    <vehicle id="321" depart="23.03" departLane="best" departSpeed="0.00" fromTaz="2" toTaz="3">
        <route edges="1/16to1/15 1/15to2/15 2/15to3/15 3/15to4/15 4/15to5/15 5/15to5/16"/>
    </vehicle>
    <vehicle id="666" depart="23.70" departLane="best" departSpeed="0.00" fromTaz="4" toTaz="1">
        <route edges="9/16to9/15 9/15to10/15 10/15to11/15 11/15to12/15 12/15to13/15 13/15to13/16"/>
    </vehicle>
    <vehicle id="1188" depart="23.89" departLane="best" departSpeed="0.00" fromTaz="99" toTaz="99">
        <route edges="9/6to10/6 10/6to10/7 10/7to10/8 10/8to10/9 10/9to10/10 10/10to10/11 10/11to10/12 10/12to10/13 10/13to10/14 10/14to11/14"/>
    </vehicle>
    <vehicle id="513" depart="24.80" departLane="best" departSpeed="0.00" fromTaz="3" toTaz="2">
        <route edges="13/16to13/15 13/15to12/15 12/15to11/15 11/15to10/15 10/15to9/15 9/15to9/16"/>
    </vehicle>
    <vehicle id="649" depart="24.98" departLane="best" departSpeed="0.00" fromTaz="4" toTaz="1">
        <route edges="9/16to9/15 9/15to10/15 10/15to11/15 11/15to12/15 12/15to13/15 13/15to13/16"/>
    </vehicle>
    <vehicle id="1255" depart="26.64" departLane="best" departSpeed="0.00" fromTaz="99" toTaz="99">
        <route edges="7/1to7/2 7/2to6/2 6/2to5/2 5/2to5/3 5/3to5/4 5/4to5/5 5/5to5/6 5/6to5/7 5/7to5/8 5/8to5/9"/>
    </vehicle>
    <vehicle id="87" depart="30.86" departLane="best" departSpeed="0.00" fromTaz="1" toTaz="4">
        <route edges="5/16to5/15 5/15to4/15 4/15to3/15 3/15to2/15 2/15to1/15 1/15to1/16"/>
    </vehicle>
    <vehicle id="265" depart="31.69" departLane="best" departSpeed="0.00" fromTaz="2" toTaz="3">
        <route edges="1/16to1/15 1/15to2/15 2/15to3/15 3/15to4/15 4/15to5/15 5/15to5/16"/>
    </vehicle>
    <vehicle id="1066" depart="32.26" departLane="best" departSpeed="0.00" fromTaz="99" toTaz="99">
        <route edges="10/15to9/15 9/15to8/15 8/15to7/15 7/15to6/15 6/15to5/15 5/15to4/15 4/15to4/14 4/14to4/13 4/13to4/12 4/12to4/11 4/11to4/10 4/10to4/9 4/9to4/8 4/8to4/7 4/7to4/6 4/6to4/5 4/5to4/4 4/4to4/3 4/3to5/3"/>
    </vehicle>
    <vehicle id="937" depart="32.72" departLane="best" departSpeed="0.00" fromTaz="99" toTaz="99">
        <route edges="3/12to3/13 3/13to3/14 3/14to3/15 3/15to4/15 4/15to5/15 5/15to6/15 6/15to7/15 7/15to8/15"/>
    </vehicle>
    <vehicle id="148" depart="33.22" departLane="best" departSpeed="0.00" fromTaz="1" toTaz="4">
        <route edges="5/16to5/15 5/15to4/15 4/15to3/15 3/15to2/15 2/15to1/15 1/15to1/16"/>
    </vehicle>
    <vehicle id="700" depart="33.54" departLane="best" departSpeed="0.00" fromTaz="4" toTaz="1">
        <route edges="9/16to9/15 9/15to10/15 10/15to11/15 11/15to12/15 12/15to13/15 13/15to13/16"/>
    </vehicle>
    <vehicle id="524" depart="33.79" departLane="best" departSpeed="0.00" fromTaz="3" toTaz="2">
        <route edges="13/16to13/15 13/15to12/15 12/15to11/15 11/15to10/15 10/15to9/15 9/15to9/16"/>
    </vehicle>
    <vehicle id="709" depart="35.84" departLane="best" departSpeed="0.00" fromTaz="4" toTaz="1">
        <route edges="9/16to9/15 9/15to10/15 10/15to11/15 11/15to12/15 12/15to13/15 13/15to13/16"/>
    </vehicle>
    <vehicle id="24" depart="35.86" departLane="best" departSpeed="0.00" fromTaz="1" toTaz="4">
        <route edges="5/16to5/15 5/15to4/15 4/15to3/15 3/15to2/15 2/15to1/15 1/15to1/16"/>
    </vehicle>
    <vehicle id="762" depart="36.13" departLane="best" departSpeed="0.00" fromTaz="4" toTaz="1">
        <route edges="9/16to9/15 9/15to10/15 10/15to11/15 11/15to12/15 12/15to13/15 13/15to13/16"/>
    </vehicle>
    <vehicle id="852" depart="36.64" departLane="best" departSpeed="0.00" fromTaz="99" toTaz="99">
        <route edges="2/12to1/12 1/12to1/13 1/13to2/13 2/13to2/14"/>
    </vehicle>
    <vehicle id="213" depart="37.12" departLane="best" departSpeed="0.00" fromTaz="2" toTaz="3">
        <route edges="1/16to1/15 1/15to2/15 2/15to3/15 3/15to4/15 4/15to5/15 5/15to5/16"/>
    </vehicle>
    <vehicle id="304" depart="37.27" departLane="best" departSpeed="0.00" fromTaz="2" toTaz="3">
        <route edges="1/16to1/15 1/15to2/15 2/15to3/15 3/15to4/15 4/15to5/15 5/15to5/16"/>
    </vehicle>
    <vehicle id="12" depart="37.69" departLane="best" departSpeed="0.00" fromTaz="1" toTaz="4">
        <route edges="5/16to5/15 5/15to4/15 4/15to3/15 3/15to2/15 2/15to1/15 1/15to1/16"/>
    </vehicle>
    <vehicle id="536" depart="37.74" departLane="best" departSpeed="0.00" fromTaz="3" toTaz="2">
        <route edges="13/16to13/15 13/15to12/15 12/15to11/15 11/15to10/15 10/15to9/15 9/15to9/16"/>
    </vehicle>
    <vehicle id="1046" depart="38.12" departLane="best" departSpeed="0.00" fromTaz="99" toTaz="99">
        <route edges="5/16to6/16 6/16to6/15 6/15to6/14 6/14to6/13 6/13to6/12 6/12to6/11 6/11to6/10 6/10to6/9 6/9to6/8 6/8to6/7 6/7to6/6 6/6to5/6"/>
    </vehicle>
    <vehicle id="1080" depart="39.29" departLane="best" departSpeed="0.00" fromTaz="99" toTaz="99">
        <route edges="9/6to8/6 8/6to7/6 7/6to6/6 6/6to6/7 6/7to6/8 6/8to7/8"/>
    </vehicle>
    <vehicle id="290" depart="39.43" departLane="best" departSpeed="0.00" fromTaz="2" toTaz="3">
        <route edges="1/16to1/15 1/15to2/15 2/15to3/15 3/15to4/15 4/15to5/15 5/15to5/16"/>
    </vehicle>
    <vehicle id="68" depart="40.24" departLane="best" departSpeed="0.00" fromTaz="1" toTaz="4">
        <route edges="5/16to5/15 5/15to4/15 4/15to3/15 3/15to2/15 2/15to1/15 1/15to1/16"/>
    </vehicle>
    <vehicle id="402" depart="41.04" departLane="best" departSpeed="0.00" fromTaz="3" toTaz="2">
        <route edges="13/16to13/15 13/15to12/15 12/15to11/15 11/15to10/15 10/15to9/15 9/15to9/16"/>
    </vehicle>
    <vehicle id="380" depart="41.59" departLane="best" departSpeed="0.00" fromTaz="2" toTaz="3">
        <route edges="1/16to1/15 1/15to2/15 2/15to3/15 3/15to4/15 4/15to5/15 5/15to5/16"/>
    </vehicle>
    <vehicle id="80" depart="42.16" departLane="best" departSpeed="0.00" fromTaz="1" toTaz="4">
        <route edges="5/16to5/15 5/15to4/15 4/15to3/15 3/15to2/15 2/15to1/15 1/15to1/16"/>
    </vehicle>
    <vehicle id="354" depart="43.83" departLane="best" departSpeed="0.00" fromTaz="2" toTaz="3">
        <route edges="1/16to1/15 1/15to2/15 2/15to3/15 3/15to4/15 4/15to5/15 5/15to5/16"/>
    </vehicle>
    <vehicle id="736" depart="44.26" departLane="best" departSpeed="0.00" fromTaz="4" toTaz="1">
        <route edges="9/16to9/15 9/15to10/15 10/15to11/15 11/15to12/15 12/15to13/15 13/15to13/16"/>
    </vehicle>
    <vehicle id="1139" depart="46.84" departLane="best" departSpeed="0.00" fromTaz="99" toTaz="99">
        <route edges="9/15to8/15 8/15to7/15 7/15to6/15 6/15to5/15 5/15to4/15 4/15to3/15 3/15to2/15 2/15to1/15 1/15to1/14 1/14to1/13 1/13to1/12 1/12to1/11 1/11to1/10 1/10to1/9 1/9to1/8 1/8to1/7 1/7to1/6 1/6to1/5 1/5to1/4 1/4to1/3"/>
    </vehicle>
    <vehicle id="801" depart="47.16" departLane="best" departSpeed="0.00" fromTaz="99" toTaz="99">
        <route edges="10/11to10/12 10/12to9/12 9/12to8/12 8/12to8/11 8/11to8/10 8/10to8/9 8/9to8/8 8/8to8/7"/>
    </vehicle>
    <vehicle id="981" depart="47.81" departLane="best" departSpeed="0.00" fromTaz="99" toTaz="99">
        <route edges="15/7to15/8 15/8to14/8 14/8to13/8 13/8to12/8 12/8to12/7 12/7to12/6 12/6to12/5 12/5to12/4 12/4to12/3 12/3to12/2"/>
    </vehicle>
    <vehicle id="719" depart="49.01" departLane="best" departSpeed="0.00" fromTaz="4" toTaz="1">
        <route edges="9/16to9/15 9/15to10/15 10/15to11/15 11/15to12/15 12/15to13/15 13/15to13/16"/>
    </vehicle>
    <vehicle id="1290" depart="49.05" departLane="best" departSpeed="0.00" fromTaz="99" toTaz="99">
        <route edges="12/3to12/2"/>
    </vehicle>
    <vehicle id="548" depart="50.77" departLane="best" departSpeed="0.00" fromTaz="3" toTaz="2">
        <route edges="13/16to13/15 13/15to12/15 12/15to11/15 11/15to10/15 10/15to9/15 9/15to9/16"/>
    </vehicle>
    <vehicle id="774" depart="51.46" departLane="best" departSpeed="0.00" fromTaz="4" toTaz="1">
        <route edges="9/16to9/15 9/15to10/15 10/15to11/15 11/15to12/15 12/15to13/15 13/15to13/16"/>
    </vehicle>
    <vehicle id="992" depart="51.97" departLane="best" departSpeed="0.00" fromTaz="99" toTaz="99">
        <route edges="3/4to2/4 2/4to1/4 1/4to16/4 16/4to15/4 15/4to14/4 14/4to13/4 13/4to13/5 13/5to14/5"/>
    </vehicle>
    <vehicle id="191" depart="53.48" departLane="best" departSpeed="0.00" fromTaz="1" toTaz="4">
        <route edges="5/16to5/15 5/15to4/15 4/15to3/15 3/15to2/15 2/15to1/15 1/15to1/16"/>
    </vehicle>
    <vehicle id="1153" depart="53.80" departLane="best" departSpeed="0.00" fromTaz="99" toTaz="99">
        <route edges="11/11to10/11 10/11to9/11 9/11to8/11 8/11to7/11 7/11to6/11 6/11to5/11 5/11to4/11 4/11to3/11 3/11to3/10 3/10to3/9 3/9to3/8 3/8to3/7 3/7to3/6 3/6to3/5 3/5to3/4 3/4to3/3 3/3to3/2 3/2to3/1"/>
    </vehicle>
    <vehicle id="564" depart="54.47" departLane="best" departSpeed="0.00" fromTaz="3" toTaz="2">
        <route edges="13/16to13/15 13/15to12/15 12/15to11/15 11/15to10/15 10/15to9/15 9/15to9/16"/>
    </vehicle>
    <vehicle id="478" depart="54.60" departLane="best" departSpeed="0.00" fromTaz="3" toTaz="2">
        <route edges="13/16to13/15 13/15to12/15 12/15to11/15 11/15to10/15 10/15to9/15 9/15to9/16"/>
    </vehicle>
    <vehicle id="6" depart="55.65" departLane="best" departSpeed="0.00" fromTaz="1" toTaz="4">
        <route edges="5/16to5/15 5/15to4/15 4/15to3/15 3/15to2/15 2/15to1/15 1/15to1/16"/>
    </vehicle>
    <vehicle id="647" depart="56.51" departLane="best" departSpeed="0.00" fromTaz="4" toTaz="1">
        <route edges="9/16to9/15 9/15to10/15 10/15to11/15 11/15to12/15 12/15to13/15 13/15to13/16"/>
    </vehicle>
    <vehicle id="996" depart="57.01" departLane="best" departSpeed="0.00" fromTaz="99" toTaz="99">
        <route edges="6/14to5/14 5/14to4/14 4/14to3/14 3/14to2/14 2/14to1/14 1/14to16/14 16/14to15/14 15/14to15/13 15/13to15/12 15/12to15/11 15/11to15/10 15/10to15/9 15/9to14/9"/>
    </vehicle>
    <vehicle id="466" depart="58.23" departLane="best" departSpeed="0.00" fromTaz="3" toTaz="2">
        <route edges="13/16to13/15 13/15to12/15 12/15to11/15 11/15to10/15 10/15to9/15 9/15to9/16"/>
    </vehicle>
    <vehicle id="837" depart="58.29" departLane="best" departSpeed="0.00" fromTaz="99" toTaz="99">
        <route edges="1/2to1/3 1/3to1/4 1/4to1/5 1/5to1/6 1/6to1/7 1/7to1/8 1/8to1/9 1/9to1/10 1/10to2/10"/>
    </vehicle>
    <vehicle id="990" depart="60.19" departLane="best" departSpeed="0.00" fromTaz="99" toTaz="99">
        <route edges="9/1to9/2 9/2to10/2 10/2to10/3 10/3to11/3 11/3to12/3 12/3to13/3 13/3to14/3 14/3to15/3"/>
    </vehicle>
    <vehicle id="769" depart="60.68" departLane="best" departSpeed="0.00" fromTaz="4" toTaz="1">
        <route edges="9/16to9/15 9/15to10/15 10/15to11/15 11/15to12/15 12/15to13/15 13/15to13/16"/>
    </vehicle>
    <vehicle id="1089" depart="61.28" departLane="best" departSpeed="0.00" fromTaz="99" toTaz="99">
        <route edges="12/12to12/11 12/11to12/10 12/10to12/9 12/9to13/9 13/9to13/10"/>
    </vehicle>
    <vehicle id="989" depart="62.60" departLane="best" departSpeed="0.00" fromTaz="99" toTaz="99">
        <route edges="9/15to10/15 10/15to10/14 10/14to10/13 10/13to10/12 10/12to10/11 10/11to10/10 10/10to10/9 10/9to10/8 10/8to10/7 10/7to11/7 11/7to12/7 12/7to13/7 13/7to13/8"/>
    </vehicle>
    <vehicle id="1208" depart="62.93" departLane="best" departSpeed="0.00" fromTaz="99" toTaz="99">
        <route edges="8/9to8/10 8/10to9/10 9/10to10/10 10/10to10/11 10/11to10/12 10/12to10/13 10/13to10/14 10/14to10/15 10/15to10/16 10/16to11/16 11/16to12/16"/>
    </vehicle>
    <vehicle id="1198" depart="63.18" departLane="best" departSpeed="0.00" fromTaz="99" toTaz="99">
        <route edges="2/14to2/13 2/13to2/12 2/12to2/11 2/11to2/10 2/10to2/9 2/9to2/8 2/8to2/7 2/7to2/6 2/6to2/5 2/5to1/5"/>
    </vehicle>
    <vehicle id="1228" depart="64.59" departLane="best" departSpeed="0.00" fromTaz="99" toTaz="99">
        <route edges="11/3to10/3 10/3to9/3 9/3to8/3 8/3to7/3 7/3to6/3 6/3to5/3 5/3to5/4 5/4to5/5 5/5to5/6 5/6to5/7 5/7to5/8 5/8to5/9 5/9to5/10 5/10to5/11 5/11to5/12 5/12to5/13 5/13to5/14 5/14to5/15 5/15to4/15"/>
    </vehicle>
    <vehicle id="110" depart="65.06" departLane="best" departSpeed="0.00" fromTaz="1" toTaz="4">
        <route edges="5/16to5/15 5/15to4/15 4/15to3/15 3/15to2/15 2/15to1/15 1/15to1/16"/>
    </vehicle>
    <vehicle id="458" depart="65.63" departLane="best" departSpeed="0.00" fromTaz="3" toTaz="2">
        <route edges="13/16to13/15 13/15to12/15 12/15to11/15 11/15to10/15 10/15to9/15 9/15to9/16"/>
    </vehicle>
    <vehicle id="932" depart="66.08" departLane="best" departSpeed="0.00" fromTaz="99" toTaz="99">
        <route edges="2/4to3/4 3/4to3/5 3/5to3/6 3/6to3/7"/>
    </vehicle>
    <vehicle id="374" depart="67.41" departLane="best" departSpeed="0.00" fromTaz="2" toTaz="3">
        <route edges="1/16to1/15 1/15to2/15 2/15to3/15 3/15to4/15 4/15to5/15 5/15to5/16"/>
    </vehicle>
    <vehicle id="1280" depart="67.57" departLane="best" departSpeed="0.00" fromTaz="99" toTaz="99">
        <route edges="3/4to3/5 3/5to3/6 3/6to3/7 3/7to3/8 3/8to3/9 3/9to4/9 4/9to5/9 5/9to6/9 6/9to7/9 7/9to8/9 8/9to8/8"/>
    </vehicle>
    <vehicle id="86" depart="67.68" departLane="best" departSpeed="0.00" fromTaz="1" toTaz="4">
        <route edges="5/16to5/15 5/15to4/15 4/15to3/15 3/15to2/15 2/15to1/15 1/15to1/16"/>
    </vehicle>
    <vehicle id="30" depart="69.48" departLane="best" departSpeed="0.00" fromTaz="1" toTaz="4">
        <route edges="5/16to5/15 5/15to4/15 4/15to3/15 3/15to2/15 2/15to1/15 1/15to1/16"/>
    </vehicle>
    <vehicle id="362" depart="70.57" departLane="best" departSpeed="0.00" fromTaz="2" toTaz="3">
        <route edges="1/16to1/15 1/15to2/15 2/15to3/15 3/15to4/15 4/15to5/15 5/15to5/16"/>
    </vehicle>
    <vehicle id="1031" depart="70.58" departLane="best" departSpeed="0.00" fromTaz="99" toTaz="99">
        <route edges="6/6to7/6 7/6to8/6 8/6to9/6 9/6to10/6 10/6to10/7 10/7to10/8 10/8to10/9 10/9to10/10 10/10to10/11 10/11to10/12 10/12to10/13 10/13to11/13 11/13to12/13 12/13to13/13 13/13to13/12"/>
    </vehicle>
    <vehicle id="826" depart="71.57" departLane="best" departSpeed="0.00" fromTaz="99" toTaz="99">
        <route edges="3/9to4/9 4/9to5/9 5/9to6/9 6/9to7/9 7/9to8/9 8/9to9/9 9/9to10/9 10/9to10/8 10/8to10/7 10/7to10/6 10/6to10/5 10/5to10/4 10/4to10/3 10/3to10/2 10/2to10/1 10/1to11/1"/>
    </vehicle>
    <vehicle id="927" depart="72.27" departLane="best" departSpeed="0.00" fromTaz="99" toTaz="99">
        <route edges="11/14to11/13 11/13to10/13 10/13to10/12 10/12to10/11 10/11to10/10 10/10to10/9 10/9to10/8 10/8to10/7 10/7to10/6 10/6to10/5 10/5to10/4 10/4to10/3 10/3to9/3 9/3to9/4"/>
    </vehicle>
    <vehicle id="610" depart="72.42" departLane="best" departSpeed="0.00" fromTaz="4" toTaz="1">
        <route edges="9/16to9/15 9/15to10/15 10/15to11/15 11/15to12/15 12/15to13/15 13/15to13/16"/>
    </vehicle>
    <vehicle id="1082" depart="75.16" departLane="best" departSpeed="0.00" fromTaz="99" toTaz="99">
        <route edges="13/2to13/1 13/1to14/1 14/1to15/1 15/1to16/1 16/1to1/1 1/1to1/2 1/2to1/3 1/3to1/4 1/4to1/5 1/5to1/6 1/6to1/7 1/7to1/8 1/8to1/9 1/9to1/10 1/10to2/10 2/10to2/11"/>
    </vehicle>
    <vehicle id="921" depart="75.43" departLane="best" departSpeed="0.00" fromTaz="99" toTaz="99">
        <route edges="9/3to8/3 8/3to7/3 7/3to6/3 6/3to5/3 5/3to4/3 4/3to4/2"/>
    </vehicle>
    <vehicle id="557" depart="76.20" departLane="best" departSpeed="0.00" fromTaz="3" toTaz="2">
        <route edges="13/16to13/15 13/15to12/15 12/15to11/15 11/15to10/15 10/15to9/15 9/15to9/16"/>
    </vehicle>
    <vehicle id="472" depart="76.69" departLane="best" departSpeed="0.00" fromTaz="3" toTaz="2">
        <route edges="13/16to13/15 13/15to12/15 12/15to11/15 11/15to10/15 10/15to9/15 9/15to9/16"/>
    </vehicle>
    <vehicle id="572" depart="76.76" departLane="best" departSpeed="0.00" fromTaz="3" toTaz="2">
        <route edges="13/16to13/15 13/15to12/15 12/15to11/15 11/15to10/15 10/15to9/15 9/15to9/16"/>
    </vehicle>
    <vehicle id="555" depart="78.17" departLane="best" departSpeed="0.00" fromTaz="3" toTaz="2">
        <route edges="13/16to13/15 13/15to12/15 12/15to11/15 11/15to10/15 10/15to9/15 9/15to9/16"/>
    </vehicle>
    <vehicle id="1048" depart="79.47" departLane="best" departSpeed="0.00" fromTaz="99" toTaz="99">
        <route edges="13/2to12/2 12/2to11/2 11/2to10/2 10/2to10/3 10/3to10/4 10/4to10/5 10/5to10/6 10/6to10/7 10/7to10/8 10/8to10/9 10/9to10/10 10/10to9/10 9/10to9/11"/>
    </vehicle>
    <vehicle id="336" depart="79.84" departLane="best" departSpeed="0.00" fromTaz="2" toTaz="3">
        <route edges="1/16to1/15 1/15to2/15 2/15to3/15 3/15to4/15 4/15to5/15 5/15to5/16"/>
    </vehicle>
    <vehicle id="531" depart="80.11" departLane="best" departSpeed="0.00" fromTaz="3" toTaz="2">
        <route edges="13/16to13/15 13/15to12/15 12/15to11/15 11/15to10/15 10/15to9/15 9/15to9/16"/>
    </vehicle>
    <vehicle id="419" depart="80.90" departLane="best" departSpeed="0.00" fromTaz="3" toTaz="2">
        <route edges="13/16to13/15 13/15to12/15 12/15to11/15 11/15to10/15 10/15to9/15 9/15to9/16"/>
    </vehicle>
    <vehicle id="1262" depart="81.47" departLane="best" departSpeed="0.00" fromTaz="99" toTaz="99">
        <route edges="9/9to9/10 9/10to10/10 10/10to10/11 10/11to10/12 10/12to10/13 10/13to10/14 10/14to11/14 11/14to12/14 12/14to13/14 13/14to13/13"/>
    </vehicle>
    <vehicle id="1158" depart="81.77" departLane="best" departSpeed="0.00" fromTaz="99" toTaz="99">
        <route edges="2/10to1/10 1/10to1/11 1/11to1/12 1/12to2/12"/>
    </vehicle>
    <vehicle id="57" depart="82.19" departLane="best" departSpeed="0.00" fromTaz="1" toTaz="4">
        <route edges="5/16to5/15 5/15to4/15 4/15to3/15 3/15to2/15 2/15to1/15 1/15to1/16"/>
    </vehicle>
    <vehicle id="410" depart="82.30" departLane="best" departSpeed="0.00" fromTaz="3" toTaz="2">
        <route edges="13/16to13/15 13/15to12/15 12/15to11/15 11/15to10/15 10/15to9/15 9/15to9/16"/>
    </vehicle>
    <vehicle id="1137" depart="82.44" departLane="best" departSpeed="0.00" fromTaz="99" toTaz="99">
        <route edges="4/12to4/11 4/11to3/11 3/11to2/11 2/11to1/11 1/11to1/10 1/10to1/9 1/9to1/8 1/8to1/7 1/7to1/6 1/6to1/5 1/5to1/4 1/4to1/3"/>
    </vehicle>
    <vehicle id="1111" depart="83.17" departLane="best" departSpeed="0.00" fromTaz="99" toTaz="99">
        <route edges="8/6to9/6 9/6to10/6 10/6to11/6 11/6to12/6 12/6to13/6 13/6to14/6 14/6to15/6 15/6to16/6 16/6to1/6 1/6to1/7 1/7to1/8 1/8to1/9 1/9to1/10 1/10to1/11 1/11to1/12 1/12to1/13 1/13to1/14 1/14to1/15 1/15to1/16 1/16to2/16"/>
    </vehicle>
    <vehicle id="1192" depart="83.45" departLane="best" departSpeed="0.00" fromTaz="99" toTaz="99">
        <route edges="2/14to1/14 1/14to16/14 16/14to15/14 15/14to14/14 14/14to14/13 14/13to14/12 14/12to14/11 14/11to14/10 14/10to14/9 14/9to14/8 14/8to14/7 14/7to14/6 14/6to14/5 14/5to14/4 14/4to14/3 14/3to14/2"/>
    </vehicle>
    <vehicle id="1027" depart="86.30" departLane="best" departSpeed="0.00" fromTaz="99" toTaz="99">
        <route edges="15/13to16/13 16/13to1/13 1/13to1/14 1/14to1/15"/>
    </vehicle>
    <vehicle id="575" depart="87.02" departLane="best" departSpeed="0.00" fromTaz="3" toTaz="2">
        <route edges="13/16to13/15 13/15to12/15 12/15to11/15 11/15to10/15 10/15to9/15 9/15to9/16"/>
    </vehicle>
    <vehicle id="1143" depart="87.63" departLane="best" departSpeed="0.00" fromTaz="99" toTaz="99">
        <route edges="4/16to3/16 3/16to2/16 2/16to1/16 1/16to16/16 16/16to15/16 15/16to14/16 14/16to13/16 13/16to12/16 12/16to12/15 12/15to12/14 12/14to12/13 12/13to12/12 12/12to12/11 12/11to12/10 12/10to12/9"/>
    </vehicle>
    <vehicle id="551" depart="88.09" departLane="best" departSpeed="0.00" fromTaz="3" toTaz="2">
        <route edges="13/16to13/15 13/15to12/15 12/15to11/15 11/15to10/15 10/15to9/15 9/15to9/16"/>
    </vehicle>
    <vehicle id="925" depart="88.31" departLane="best" departSpeed="0.00" fromTaz="99" toTaz="99">
        <route edges="3/12to2/12 2/12to2/13 2/13to2/14 2/14to2/15 2/15to2/16"/>
    </vehicle>
    <vehicle id="860" depart="88.88" departLane="best" departSpeed="0.00" fromTaz="99" toTaz="99">
        <route edges="15/11to15/10 15/10to16/10 16/10to1/10 1/10to1/11 1/11to1/12 1/12to1/13 1/13to2/13 2/13to3/13 3/13to3/12"/>
    </vehicle>
    <vehicle id="201" depart="88.91" departLane="best" departSpeed="0.00" fromTaz="2" toTaz="3">
        <route edges="1/16to1/15 1/15to2/15 2/15to3/15 3/15to4/15 4/15to5/15 5/15to5/16"/>
    </vehicle>
    <vehicle id="713" depart="89.32" departLane="best" departSpeed="0.00" fromTaz="4" toTaz="1">
        <route edges="9/16to9/15 9/15to10/15 10/15to11/15 11/15to12/15 12/15to13/15 13/15to13/16"/>
    </vehicle>
    <vehicle id="671" depart="89.41" departLane="best" departSpeed="0.00" fromTaz="4" toTaz="1">
        <route edges="9/16to9/15 9/15to10/15 10/15to11/15 11/15to12/15 12/15to13/15 13/15to13/16"/>
    </vehicle>
    <vehicle id="102" depart="89.59" departLane="best" departSpeed="0.00" fromTaz="1" toTaz="4">
        <route edges="5/16to5/15 5/15to4/15 4/15to3/15 3/15to2/15 2/15to1/15 1/15to1/16"/>
    </vehicle>
    <vehicle id="569" depart="89.81" departLane="best" departSpeed="0.00" fromTaz="3" toTaz="2">
        <route edges="13/16to13/15 13/15to12/15 12/15to11/15 11/15to10/15 10/15to9/15 9/15to9/16"/>
    </vehicle>
    <vehicle id="537" depart="89.91" departLane="best" departSpeed="0.00" fromTaz="3" toTaz="2">
        <route edges="13/16to13/15 13/15to12/15 12/15to11/15 11/15to10/15 10/15to9/15 9/15to9/16"/>
    </vehicle>
    <vehicle id="136" depart="89.94" departLane="best" departSpeed="0.00" fromTaz="1" toTaz="4">
        <route edges="5/16to5/15 5/15to4/15 4/15to3/15 3/15to2/15 2/15to1/15 1/15to1/16"/>
    </vehicle>
    <vehicle id="688" depart="90.36" departLane="best" departSpeed="0.00" fromTaz="4" toTaz="1">
        <route edges="9/16to9/15 9/15to10/15 10/15to11/15 11/15to12/15 12/15to13/15 13/15to13/16"/>
    </vehicle>
    <vehicle id="505" depart="91.39" departLane="best" departSpeed="0.00" fromTaz="3" toTaz="2">
        <route edges="13/16to13/15 13/15to12/15 12/15to11/15 11/15to10/15 10/15to9/15 9/15to9/16"/>
    </vehicle>
    <vehicle id="884" depart="92.70" departLane="best" departSpeed="0.00" fromTaz="99" toTaz="99">
        <route edges="9/3to9/2 9/2to10/2 10/2to10/3 10/3to11/3 11/3to12/3 12/3to13/3"/>
    </vehicle>
    <vehicle id="798" depart="93.36" departLane="best" departSpeed="0.00" fromTaz="4" toTaz="1">
        <route edges="9/16to9/15 9/15to10/15 10/15to11/15 11/15to12/15 12/15to13/15 13/15to13/16"/>
    </vehicle>
    <vehicle id="1004" depart="95.19" departLane="best" departSpeed="0.00" fromTaz="99" toTaz="99">
        <route edges="11/10to11/9 11/9to11/8 11/8to11/7 11/7to11/6 11/6to12/6 12/6to13/6 13/6to14/6 14/6to15/6"/>
    </vehicle>
    <vehicle id="309" depart="95.86" departLane="best" departSpeed="0.00" fromTaz="2" toTaz="3">
        <route edges="1/16to1/15 1/15to2/15 2/15to3/15 3/15to4/15 4/15to5/15 5/15to5/16"/>
    </vehicle>
    <vehicle id="1053" depart="96.84" departLane="best" departSpeed="0.00" fromTaz="99" toTaz="99">