<?xml version="1.0" encoding="UTF-8"?>

<!-- generated on 08/14/16 20:50:25 by SUMO netgenerate Version 0.23.0
<?xml version="1.0" encoding="UTF-8"?>

<configuration xmlns:xsi="http://www.w3.org/2001/XMLSchema-instance" xsi:noNamespaceSchemaLocation="http://sumo.dlr.de/xsd/netgenerateConfiguration.xsd">

    <grid_network>
        <grid value="true"/>
        <grid.number value="16"/>
        <grid.length value="150"/>
        <grid.attach-length value="30"/>
    </grid_network>

    <output>
        <output-file value="grid.net.xml"/>
        <plain-output-prefix value="grid"/>
    </output>

    <building_defaults>
        <default.lanenumber value="3"/>
    </building_defaults>

    <report>
        <verbose value="true"/>
    </report>

</configuration>
-->

<net version="0.13" xmlns:xsi="http://www.w3.org/2001/XMLSchema-instance" xsi:noNamespaceSchemaLocation="http://sumo.dlr.de/xsd/net_file.xsd">

    <location netOffset="0.00,0.00" convBoundary="0.00,0.00,2310.00,2310.00" origBoundary="0.00,0.00,2310.00,2310.00" projParameter="!"/>

    <edge id=":0/0_0" function="internal">
        <lane id=":0/0_0_0" index="0" speed="13.90" length="5.00" shape="21.75,41.35 21.56,39.99 20.98,39.03 20.01,38.44 18.65,38.25"/>
    </edge>
    <edge id=":0/0_1" function="internal">
        <lane id=":0/0_1_0" index="0" speed="13.90" length="22.70" shape="21.75,41.35 21.75,34.61 21.75,30.00 21.75,25.39 21.75,18.65"/>
        <lane id=":0/0_1_1" index="1" speed="13.90" length="22.70" shape="25.05,41.35 25.05,34.61 25.05,30.00 25.05,25.39 25.05,18.65"/>
        <lane id=":0/0_1_2" index="2" speed="13.90" length="22.70" shape="28.35,41.35 28.35,34.61 28.35,30.00 28.35,25.39 28.35,18.65"/>
    </edge>
    <edge id=":0/0_4" function="internal">
        <lane id=":0/0_4_0" index="0" speed="13.90" length="7.47" shape="28.35,41.35 29.16,35.66 30.05,34.18"/>
    </edge>
    <edge id=":0/0_5" function="internal">
        <lane id=":0/0_5_0" index="0" speed="13.90" length="2.41" shape="28.35,41.35 29.17,40.11 30.00,39.70"/>
    </edge>
    <edge id=":0/0_20" function="internal">
        <lane id=":0/0_20_0" index="0" speed="13.90" length="13.50" shape="30.05,34.18 31.60,31.60 35.66,29.16 41.35,28.35"/>
    </edge>
    <edge id=":0/0_21" function="internal">
        <lane id=":0/0_21_0" index="0" speed="13.90" length="2.41" shape="30.00,39.70 30.82,40.11 31.65,41.35"/>
    </edge>
    <edge id=":0/0_6" function="internal">
        <lane id=":0/0_6_0" index="0" speed="13.90" length="5.00" shape="41.35,38.25 39.99,38.44 39.02,39.02 38.44,39.99 38.25,41.35"/>
    </edge>
    <edge id=":0/0_7" function="internal">
        <lane id=":0/0_7_0" index="0" speed="13.90" length="22.70" shape="41.35,34.95 34.61,34.95 30.00,34.95 25.39,34.95 18.65,34.95"/>
    </edge>
    <edge id=":0/0_8" function="internal">
        <lane id=":0/0_8_0" index="0" speed="13.90" length="20.97" shape="41.35,31.65 35.66,30.84 31.60,28.40 29.16,24.34 28.35,18.65"/>
    </edge>
    <edge id=":0/0_9" function="internal">
        <lane id=":0/0_9_0" index="0" speed="13.90" length="4.82" shape="41.35,31.65 40.11,30.82 39.70,30.00 40.11,29.18 41.35,28.35"/>
    </edge>
    <edge id=":0/0_10" function="internal">
        <lane id=":0/0_10_0" index="0" speed="13.90" length="5.00" shape="38.25,18.65 38.44,20.01 39.02,20.98 39.99,21.56 41.35,21.75"/>
    </edge>
    <edge id=":0/0_11" function="internal">
        <lane id=":0/0_11_0" index="0" speed="13.90" length="22.70" shape="38.25,18.65 38.25,25.39 38.25,30.00 38.25,34.61 38.25,41.35"/>
        <lane id=":0/0_11_1" index="1" speed="13.90" length="22.70" shape="34.95,18.65 34.95,25.39 34.95,30.00 34.95,34.61 34.95,41.35"/>
        <lane id=":0/0_11_2" index="2" speed="13.90" length="22.70" shape="31.65,18.65 31.65,25.39 31.65,30.00 31.65,34.61 31.65,41.35"/>
    </edge>
    <edge id=":0/0_14" function="internal">
        <lane id=":0/0_14_0" index="0" speed="13.90" length="7.47" shape="31.65,18.65 30.84,24.34 29.95,25.82"/>
    </edge>
    <edge id=":0/0_15" function="internal">
        <lane id=":0/0_15_0" index="0" speed="13.90" length="2.41" shape="31.65,18.65 30.82,19.89 30.00,20.30"/>
    </edge>
    <edge id=":0/0_22" function="internal">
        <lane id=":0/0_22_0" index="0" speed="13.90" length="13.50" shape="29.95,25.82 28.40,28.40 24.34,30.84 18.65,31.65"/>
    </edge>
    <edge id=":0/0_23" function="internal">
        <lane id=":0/0_23_0" index="0" speed="13.90" length="2.41" shape="30.00,20.30 29.18,19.89 28.35,18.65"/>
    </edge>
    <edge id=":0/0_16" function="internal">
        <lane id=":0/0_16_0" index="0" speed="13.90" length="5.00" shape="18.65,21.75 20.01,21.56 20.98,20.98 21.56,20.01 21.75,18.65"/>
    </edge>
    <edge id=":0/0_17" function="internal">
        <lane id=":0/0_17_0" index="0" speed="13.90" length="22.70" shape="18.65,25.05 25.39,25.05 30.00,25.05 34.61,25.05 41.35,25.05"/>
    </edge>
    <edge id=":0/0_18" function="internal">
        <lane id=":0/0_18_0" index="0" speed="13.90" length="20.97" shape="18.65,28.35 24.34,29.16 28.40,31.60 30.84,35.66 31.65,41.35"/>
    </edge>
    <edge id=":0/0_19" function="internal">
        <lane id=":0/0_19_0" index="0" speed="13.90" length="4.82" shape="18.65,28.35 19.89,29.17 20.30,30.00 19.89,30.82 18.65,31.65"/>
    </edge>
    <edge id=":0/1_0" function="internal">
        <lane id=":0/1_0_0" index="0" speed="13.90" length="5.00" shape="21.75,191.35 21.56,189.99 20.98,189.03 20.01,188.44 18.65,188.25"/>
    </edge>
    <edge id=":0/1_1" function="internal">
        <lane id=":0/1_1_0" index="0" speed="13.90" length="22.70" shape="21.75,191.35 21.75,184.61 21.75,180.00 21.75,175.39 21.75,168.65"/>
        <lane id=":0/1_1_1" index="1" speed="13.90" length="22.70" shape="25.05,191.35 25.05,184.61 25.05,180.00 25.05,175.39 25.05,168.65"/>
        <lane id=":0/1_1_2" index="2" speed="13.90" length="22.70" shape="28.35,191.35 28.35,184.61 28.35,180.00 28.35,175.39 28.35,168.65"/>
    </edge>
    <edge id=":0/1_4" function="internal">
        <lane id=":0/1_4_0" index="0" speed="13.90" length="7.47" shape="28.35,191.35 29.16,185.66 30.05,184.18"/>
    </edge>
    <edge id=":0/1_5" function="internal">
        <lane id=":0/1_5_0" index="0" speed="13.90" length="2.41" shape="28.35,191.35 29.17,190.11 30.00,189.70"/>
    </edge>
    <edge id=":0/1_20" function="internal">
        <lane id=":0/1_20_0" index="0" speed="13.90" length="13.50" shape="30.05,184.18 31.60,181.60 35.66,179.16 41.35,178.35"/>
    </edge>
    <edge id=":0/1_21" function="internal">
        <lane id=":0/1_21_0" index="0" speed="13.90" length="2.41" shape="30.00,189.70 30.82,190.11 31.65,191.35"/>
    </edge>
    <edge id=":0/1_6" function="internal">
        <lane id=":0/1_6_0" index="0" speed="13.90" length="5.00" shape="41.35,188.25 39.99,188.44 39.03,189.03 38.44,189.99 38.25,191.35"/>
    </edge>
    <edge id=":0/1_7" function="internal">
        <lane id=":0/1_7_0" index="0" speed="13.90" length="22.70" shape="41.35,184.95 34.61,184.95 30.00,184.95 25.39,184.95 18.65,184.95"/>
    </edge>
    <edge id=":0/1_8" function="internal">
        <lane id=":0/1_8_0" index="0" speed="13.90" length="20.97" shape="41.35,181.65 35.66,180.84 31.60,178.40 29.16,174.34 28.35,168.65"/>
    </edge>
    <edge id=":0/1_9" function="internal">
        <lane id=":0/1_9_0" index="0" speed="13.90" length="4.82" shape="41.35,181.65 40.11,180.83 39.70,180.00 40.11,179.18 41.35,178.35"/>
    </edge>
    <edge id=":0/1_10" function="internal">
        <lane id=":0/1_10_0" index="0" speed="13.90" length="5.00" shape="38.25,168.65 38.44,170.01 39.03,170.97 39.99,171.56 41.35,171.75"/>
    </edge>
    <edge id=":0/1_11" function="internal">
        <lane id=":0/1_11_0" index="0" speed="13.90" length="22.70" shape="38.25,168.65 38.25,175.39 38.25,180.00 38.25,184.61 38.25,191.35"/>
        <lane id=":0/1_11_1" index="1" speed="13.90" length="22.70" shape="34.95,168.65 34.95,175.39 34.95,180.00 34.95,184.61 34.95,191.35"/>
        <lane id=":0/1_11_2" index="2" speed="13.90" length="22.70" shape="31.65,168.65 31.65,175.39 31.65,180.00 31.65,184.61 31.65,191.35"/>
    </edge>
    <edge id=":0/1_14" function="internal">
        <lane id=":0/1_14_0" index="0" speed="13.90" length="7.47" shape="31.65,168.65 30.84,174.34 29.95,175.82"/>
    </edge>
    <edge id=":0/1_15" function="internal">
        <lane id=":0/1_15_0" index="0" speed="13.90" length="2.41" shape="31.65,168.65 30.82,169.89 30.00,170.30"/>
    </edge>
    <edge id=":0/1_22" function="internal">
        <lane id=":0/1_22_0" index="0" speed="13.90" length="13.50" shape="29.95,175.82 28.40,178.40 24.34,180.84 18.65,181.65"/>
    </edge>
    <edge id=":0/1_23" function="internal">
        <lane id=":0/1_23_0" index="0" speed="13.90" length="2.41" shape="30.00,170.30 29.18,169.89 28.35,168.65"/>
    </edge>
    <edge id=":0/1_16" function="internal">
        <lane id=":0/1_16_0" index="0" speed="13.90" length="5.00" shape="18.65,171.75 20.01,171.56 20.98,170.97 21.56,170.01 21.75,168.65"/>
    </edge>
    <edge id=":0/1_17" function="internal">
        <lane id=":0/1_17_0" index="0" speed="13.90" length="22.70" shape="18.65,175.05 25.39,175.05 30.00,175.05 34.61,175.05 41.35,175.05"/>
    </edge>
    <edge id=":0/1_18" function="internal">
        <lane id=":0/1_18_0" index="0" speed="13.90" length="20.97" shape="18.65,178.35 24.34,179.16 28.40,181.60 30.84,185.66 31.65,191.35"/>
    </edge>
    <edge id=":0/1_19" function="internal">
        <lane id=":0/1_19_0" index="0" speed="13.90" length="4.82" shape="18.65,178.35 19.89,179.17 20.30,180.00 19.89,180.82 18.65,181.65"/>
    </edge>
    <edge id=":0/10_0" function="internal">
        <lane id=":0/10_0_0" index="0" speed="13.90" length="5.00" shape="21.75,1541.35 21.56,1539.99 20.98,1539.03 20.01,1538.44 18.65,1538.25"/>
    </edge>
    <edge id=":0/10_1" function="internal">
        <lane id=":0/10_1_0" index="0" speed="13.90" length="22.70" shape="21.75,1541.35 21.75,1534.61 21.75,1530.00 21.75,1525.39 21.75,1518.65"/>
        <lane id=":0/10_1_1" index="1" speed="13.90" length="22.70" shape="25.05,1541.35 25.05,1534.61 25.05,1530.00 25.05,1525.39 25.05,1518.65"/>
        <lane id=":0/10_1_2" index="2" speed="13.90" length="22.70" shape="28.35,1541.35 28.35,1534.61 28.35,1530.00 28.35,1525.39 28.35,1518.65"/>
    </edge>
    <edge id=":0/10_4" function="internal">
        <lane id=":0/10_4_0" index="0" speed="13.90" length="7.47" shape="28.35,1541.35 29.16,1535.66 30.05,1534.18"/>
    </edge>
    <edge id=":0/10_5" function="internal">
        <lane id=":0/10_5_0" index="0" speed="13.90" length="2.41" shape="28.35,1541.35 29.17,1540.11 30.00,1539.70"/>
    </edge>
    <edge id=":0/10_20" function="internal">
        <lane id=":0/10_20_0" index="0" speed="13.90" length="13.50" shape="30.05,1534.18 31.60,1531.60 35.66,1529.16 41.35,1528.35"/>
    </edge>
    <edge id=":0/10_21" function="internal">
        <lane id=":0/10_21_0" index="0" speed="13.90" length="2.41" shape="30.00,1539.70 30.82,1540.11 31.65,1541.35"/>
    </edge>
    <edge id=":0/10_6" function="internal">
        <lane id=":0/10_6_0" index="0" speed="13.90" length="5.00" shape="41.35,1538.25 39.99,1538.44 39.02,1539.03 38.44,1539.99 38.25,1541.35"/>
    </edge>
    <edge id=":0/10_7" function="internal">
        <lane id=":0/10_7_0" index="0" speed="13.90" length="22.70" shape="41.35,1534.95 34.61,1534.95 30.00,1534.95 25.39,1534.95 18.65,1534.95"/>
    </edge>
    <edge id=":0/10_8" function="internal">
        <lane id=":0/10_8_0" index="0" speed="13.90" length="20.97" shape="41.35,1531.65 35.66,1530.84 31.60,1528.40 29.16,1524.34 28.35,1518.65"/>
    </edge>
    <edge id=":0/10_9" function="internal">
        <lane id=":0/10_9_0" index="0" speed="13.90" length="4.82" shape="41.35,1531.65 40.11,1530.82 39.70,1530.00 40.11,1529.18 41.35,1528.35"/>
    </edge>
    <edge id=":0/10_10" function="internal">
        <lane id=":0/10_10_0" index="0" speed="13.90" length="5.00" shape="38.25,1518.65 38.44,1520.01 39.02,1520.97 39.99,1521.56 41.35,1521.75"/>
    </edge>
    <edge id=":0/10_11" function="internal">
        <lane id=":0/10_11_0" index="0" speed="13.90" length="22.70" shape="38.25,1518.65 38.25,1525.39 38.25,1530.00 38.25,1534.61 38.25,1541.35"/>
        <lane id=":0/10_11_1" index="1" speed="13.90" length="22.70" shape="34.95,1518.65 34.95,1525.39 34.95,1530.00 34.95,1534.61 34.95,1541.35"/>
        <lane id=":0/10_11_2" index="2" speed="13.90" length="22.70" shape="31.65,1518.65 31.65,1525.39 31.65,1530.00 31.65,1534.61 31.65,1541.35"/>
    </edge>
    <edge id=":0/10_14" function="internal">
        <lane id=":0/10_14_0" index="0" speed="13.90" length="7.47" shape="31.65,1518.65 30.84,1524.34 29.95,1525.82"/>
    </edge>
    <edge id=":0/10_15" function="internal">
        <lane id=":0/10_15_0" index="0" speed="13.90" length="2.41" shape="31.65,1518.65 30.82,1519.89 30.00,1520.30"/>
    </edge>
    <edge id=":0/10_22" function="internal">
        <lane id=":0/10_22_0" index="0" speed="13.90" length="13.50" shape="29.95,1525.82 28.40,1528.40 24.34,1530.84 18.65,1531.65"/>
    </edge>
    <edge id=":0/10_23" function="internal">
        <lane id=":0/10_23_0" index="0" speed="13.90" length="2.41" shape="30.00,1520.30 29.18,1519.89 28.35,1518.65"/>
    </edge>
    <edge id=":0/10_16" function="internal">
        <lane id=":0/10_16_0" index="0" speed="13.90" length="5.00" shape="18.65,1521.75 20.01,1521.56 20.98,1520.97 21.56,1520.01 21.75,1518.65"/>
    </edge>
    <edge id=":0/10_17" function="internal">
        <lane id=":0/10_17_0" index="0" speed="13.90" length="22.70" shape="18.65,1525.05 25.39,1525.05 30.00,1525.05 34.61,1525.05 41.35,1525.05"/>
    </edge>
    <edge id=":0/10_18" function="internal">
        <lane id=":0/10_18_0" index="0" speed="13.90" length="20.97" shape="18.65,1528.35 24.34,1529.16 28.40,1531.60 30.84,1535.66 31.65,1541.35"/>
    </edge>
    <edge id=":0/10_19" function="internal">
        <lane id=":0/10_19_0" index="0" speed="13.90" length="4.82" shape="18.65,1528.35 19.89,1529.18 20.30,1530.00 19.89,1530.83 18.65,1531.65"/>
    </edge>
    <edge id=":0/11_0" function="internal">
        <lane id=":0/11_0_0" index="0" speed="13.90" length="5.00" shape="21.75,1691.35 21.56,1689.99 20.98,1689.03 20.01,1688.44 18.65,1688.25"/>
    </edge>
    <edge id=":0/11_1" function="internal">
        <lane id=":0/11_1_0" index="0" speed="13.90" length="22.70" shape="21.75,1691.35 21.75,1684.61 21.75,1680.00 21.75,1675.39 21.75,1668.65"/>
        <lane id=":0/11_1_1" index="1" speed="13.90" length="22.70" shape="25.05,1691.35 25.05,1684.61 25.05,1680.00 25.05,1675.39 25.05,1668.65"/>
        <lane id=":0/11_1_2" index="2" speed="13.90" length="22.70" shape="28.35,1691.35 28.35,1684.61 28.35,1680.00 28.35,1675.39 28.35,1668.65"/>
    </edge>
    <edge id=":0/11_4" function="internal">
        <lane id=":0/11_4_0" index="0" speed="13.90" length="7.47" shape="28.35,1691.35 29.16,1685.66 30.05,1684.18"/>
    </edge>
    <edge id=":0/11_5" function="internal">
        <lane id=":0/11_5_0" index="0" speed="13.90" length="2.41" shape="28.35,1691.35 29.17,1690.11 30.00,1689.70"/>
    </edge>
    <edge id=":0/11_20" function="internal">
        <lane id=":0/11_20_0" index="0" speed="13.90" length="13.50" shape="30.05,1684.18 31.60,1681.60 35.66,1679.16 41.35,1678.35"/>
    </edge>
    <edge id=":0/11_21" function="internal">
        <lane id=":0/11_21_0" index="0" speed="13.90" length="2.41" shape="30.00,1689.70 30.82,1690.11 31.65,1691.35"/>
    </edge>
    <edge id=":0/11_6" function="internal">
        <lane id=":0/11_6_0" index="0" speed="13.90" length="5.00" shape="41.35,1688.25 39.99,1688.44 39.02,1689.03 38.44,1689.99 38.25,1691.35"/>
    </edge>
    <edge id=":0/11_7" function="internal">
        <lane id=":0/11_7_0" index="0" speed="13.90" length="22.70" shape="41.35,1684.95 34.61,1684.95 30.00,1684.95 25.39,1684.95 18.65,1684.95"/>
    </edge>
    <edge id=":0/11_8" function="internal">
        <lane id=":0/11_8_0" index="0" speed="13.90" length="20.97" shape="41.35,1681.65 35.66,1680.84 31.60,1678.40 29.16,1674.34 28.35,1668.65"/>
    </edge>
    <edge id=":0/11_9" function="internal">
        <lane id=":0/11_9_0" index="0" speed="13.90" length="4.82" shape="41.35,1681.65 40.11,1680.82 39.70,1680.00 40.11,1679.18 41.35,1678.35"/>
    </edge>
    <edge id=":0/11_10" function="internal">
        <lane id=":0/11_10_0" index="0" speed="13.90" length="5.00" shape="38.25,1668.65 38.44,1670.01 39.02,1670.97 39.99,1671.56 41.35,1671.75"/>
    </edge>
    <edge id=":0/11_11" function="internal">
        <lane id=":0/11_11_0" index="0" speed="13.90" length="22.70" shape="38.25,1668.65 38.25,1675.39 38.25,1680.00 38.25,1684.61 38.25,1691.35"/>
        <lane id=":0/11_11_1" index="1" speed="13.90" length="22.70" shape="34.95,1668.65 34.95,1675.39 34.95,1680.00 34.95,1684.61 34.95,1691.35"/>
        <lane id=":0/11_11_2" index="2" speed="13.90" length="22.70" shape="31.65,1668.65 31.65,1675.39 31.65,1680.00 31.65,1684.61 31.65,1691.35"/>
    </edge>
    <edge id=":0/11_14" function="internal">
        <lane id=":0/11_14_0" index="0" speed="13.90" length="7.47" shape="31.65,1668.65 30.84,1674.34 29.95,1675.82"/>
    </edge>
    <edge id=":0/11_15" function="internal">
        <lane id=":0/11_15_0" index="0" speed="13.90" length="2.41" shape="31.65,1668.65 30.82,1669.89 30.00,1670.30"/>
    </edge>
    <edge id=":0/11_22" function="internal">
        <lane id=":0/11_22_0" index="0" speed="13.90" length="13.50" shape="29.95,1675.82 28.40,1678.40 24.34,1680.84 18.65,1681.65"/>
    </edge>
    <edge id=":0/11_23" function="internal">
        <lane id=":0/11_23_0" index="0" speed="13.90" length="2.41" shape="30.00,1670.30 29.18,1669.89 28.35,1668.65"/>
    </edge>
    <edge id=":0/11_16" function="internal">
        <lane id=":0/11_16_0" index="0" speed="13.90" length="5.00" shape="18.65,1671.75 20.01,1671.56 20.98,1670.97 21.56,1670.01 21.75,1668.65"/>
    </edge>
    <edge id=":0/11_17" function="internal">
        <lane id=":0/11_17_0" index="0" speed="13.90" length="22.70" shape="18.65,1675.05 25.39,1675.05 30.00,1675.05 34.61,1675.05 41.35,1675.05"/>
    </edge>
    <edge id=":0/11_18" function="internal">
        <lane id=":0/11_18_0" index="0" speed="13.90" length="20.97" shape="18.65,1678.35 24.34,1679.16 28.40,1681.60 30.84,1685.66 31.65,1691.35"/>
    </edge>
    <edge id=":0/11_19" function="internal">
        <lane id=":0/11_19_0" index="0" speed="13.90" length="4.82" shape="18.65,1678.35 19.89,1679.18 20.30,1680.00 19.89,1680.83 18.65,1681.65"/>
    </edge>
    <edge id=":0/12_0" function="internal">
        <lane id=":0/12_0_0" index="0" speed="13.90" length="5.00" shape="21.75,1841.35 21.56,1839.99 20.98,1839.03 20.01,1838.44 18.65,1838.25"/>
    </edge>
    <edge id=":0/12_1" function="internal">
        <lane id=":0/12_1_0" index="0" speed="13.90" length="22.70" shape="21.75,1841.35 21.75,1834.61 21.75,1830.00 21.75,1825.39 21.75,1818.65"/>
        <lane id=":0/12_1_1" index="1" speed="13.90" length="22.70" shape="25.05,1841.35 25.05,1834.61 25.05,1830.00 25.05,1825.39 25.05,1818.65"/>
        <lane id=":0/12_1_2" index="2" speed="13.90" length="22.70" shape="28.35,1841.35 28.35,1834.61 28.35,1830.00 28.35,1825.39 28.35,1818.65"/>
    </edge>
    <edge id=":0/12_4" function="internal">
        <lane id=":0/12_4_0" index="0" speed="13.90" length="7.47" shape="28.35,1841.35 29.16,1835.66 30.05,1834.18"/>
    </edge>
    <edge id=":0/12_5" function="internal">
        <lane id=":0/12_5_0" index="0" speed="13.90" length="2.41" shape="28.35,1841.35 29.17,1840.11 30.00,1839.70"/>
    </edge>
    <edge id=":0/12_20" function="internal">
        <lane id=":0/12_20_0" index="0" speed="13.90" length="13.50" shape="30.05,1834.18 31.60,1831.60 35.66,1829.16 41.35,1828.35"/>
    </edge>
    <edge id=":0/12_21" function="internal">
        <lane id=":0/12_21_0" index="0" speed="13.90" length="2.41" shape="30.00,1839.70 30.82,1840.11 31.65,1841.35"/>
    </edge>
    <edge id=":0/12_6" function="internal">
        <lane id=":0/12_6_0" index="0" speed="13.90" length="5.00" shape="41.35,1838.25 39.99,1838.44 39.02,1839.03 38.44,1839.99 38.25,1841.35"/>
    </edge>
    <edge id=":0/12_7" function="internal">
        <lane id=":0/12_7_0" index="0" speed="13.90" length="22.70" shape="41.35,1834.95 34.61,1834.95 30.00,1834.95 25.39,1834.95 18.65,1834.95"/>
    </edge>
    <edge id=":0/12_8" function="internal">
        <lane id=":0/12_8_0" index="0" speed="13.90" length="20.97" shape="41.35,1831.65 35.66,1830.84 31.60,1828.40 29.16,1824.34 28.35,1818.65"/>
    </edge>
    <edge id=":0/12_9" function="internal">
        <lane id=":0/12_9_0" index="0" speed="13.90" length="4.82" shape="41.35,1831.65 40.11,1830.83 39.70,1830.00 40.11,1829.17 41.35,1828.35"/>
    </edge>
    <edge id=":0/12_10" function="internal">
        <lane id=":0/12_10_0" index="0" speed="13.90" length="5.00" shape="38.25,1818.65 38.44,1820.01 39.02,1820.97 39.99,1821.56 41.35,1821.75"/>
    </edge>
    <edge id=":0/12_11" function="internal">
        <lane id=":0/12_11_0" index="0" speed="13.90" length="22.70" shape="38.25,1818.65 38.25,1825.39 38.25,1830.00 38.25,1834.61 38.25,1841.35"/>
        <lane id=":0/12_11_1" index="1" speed="13.90" length="22.70" shape="34.95,1818.65 34.95,1825.39 34.95,1830.00 34.95,1834.61 34.95,1841.35"/>
        <lane id=":0/12_11_2" index="2" speed="13.90" length="22.70" shape="31.65,1818.65 31.65,1825.39 31.65,1830.00 31.65,1834.61 31.65,1841.35"/>
    </edge>
    <edge id=":0/12_14" function="internal">
        <lane id=":0/12_14_0" index="0" speed="13.90" length="7.47" shape="31.65,1818.65 30.84,1824.34 29.95,1825.82"/>
    </edge>
    <edge id=":0/12_15" function="internal">
        <lane id=":0/12_15_0" index="0" speed="13.90" length="2.41" shape="31.65,1818.65 30.82,1819.89 30.00,1820.30"/>
    </edge>
    <edge id=":0/12_22" function="internal">
        <lane id=":0/12_22_0" index="0" speed="13.90" length="13.50" shape="29.95,1825.82 28.40,1828.40 24.34,1830.84 18.65,1831.65"/>
    </edge>
    <edge id=":0/12_23" function="internal">
        <lane id=":0/12_23_0" index="0" speed="13.90" length="2.41" shape="30.00,1820.30 29.18,1819.89 28.35,1818.65"/>
    </edge>
    <edge id=":0/12_16" function="internal">
        <lane id=":0/12_16_0" index="0" speed="13.90" length="5.00" shape="18.65,1821.75 20.01,1821.56 20.98,1820.97 21.56,1820.01 21.75,1818.65"/>
    </edge>
    <edge id=":0/12_17" function="internal">
        <lane id=":0/12_17_0" index="0" speed="13.90" length="22.70" shape="18.65,1825.05 25.39,1825.05 30.00,1825.05 34.61,1825.05 41.35,1825.05"/>
    </edge>
    <edge id=":0/12_18" function="internal">
        <lane id=":0/12_18_0" index="0" speed="13.90" length="20.97" shape="18.65,1828.35 24.34,1829.16 28.40,1831.60 30.84,1835.66 31.65,1841.35"/>
    </edge>
    <edge id=":0/12_19" function="internal">
        <lane id=":0/12_19_0" index="0" speed="13.90" length="4.82" shape="18.65,1828.35 19.89,1829.18 20.30,1830.00 19.89,1830.83 18.65,1831.65"/>
    </edge>
    <edge id=":0/13_0" function="internal">
        <lane id=":0/13_0_0" index="0" speed="13.90" length="5.00" shape="21.75,1991.35 21.56,1989.99 20.98,1989.03 20.01,1988.44 18.65,1988.25"/>
    </edge>
    <edge id=":0/13_1" function="internal">
        <lane id=":0/13_1_0" index="0" speed="13.90" length="22.70" shape="21.75,1991.35 21.75,1984.61 21.75,1980.00 21.75,1975.39 21.75,1968.65"/>
        <lane id=":0/13_1_1" index="1" speed="13.90" length="22.70" shape="25.05,1991.35 25.05,1984.61 25.05,1980.00 25.05,1975.39 25.05,1968.65"/>
        <lane id=":0/13_1_2" index="2" speed="13.90" length="22.70" shape="28.35,1991.35 28.35,1984.61 28.35,1980.00 28.35,1975.39 28.35,1968.65"/>
    </edge>
    <edge id=":0/13_4" function="internal">
        <lane id=":0/13_4_0" index="0" speed="13.90" length="7.47" shape="28.35,1991.35 29.16,1985.66 30.05,1984.18"/>
    </edge>
    <edge id=":0/13_5" function="internal">
        <lane id=":0/13_5_0" index="0" speed="13.90" length="2.41" shape="28.35,1991.35 29.17,1990.11 30.00,1989.70"/>
    </edge>
    <edge id=":0/13_20" function="internal">
        <lane id=":0/13_20_0" index="0" speed="13.90" length="13.50" shape="30.05,1984.18 31.60,1981.60 35.66,1979.16 41.35,1978.35"/>
    </edge>
    <edge id=":0/13_21" function="internal">
        <lane id=":0/13_21_0" index="0" speed="13.90" length="2.41" shape="30.00,1989.70 30.82,1990.11 31.65,1991.35"/>
    </edge>
    <edge id=":0/13_6" function="internal">
        <lane id=":0/13_6_0" index="0" speed="13.90" length="5.00" shape="41.35,1988.25 39.99,1988.44 39.02,1989.03 38.44,1989.99 38.25,1991.35"/>
    </edge>
    <edge id=":0/13_7" function="internal">
        <lane id=":0/13_7_0" index="0" speed="13.90" length="22.70" shape="41.35,1984.95 34.61,1984.95 30.00,1984.95 25.39,1984.95 18.65,1984.95"/>
    </edge>
    <edge id=":0/13_8" function="internal">
        <lane id=":0/13_8_0" index="0" speed="13.90" length="20.97" shape="41.35,1981.65 35.66,1980.84 31.60,1978.40 29.16,1974.34 28.35,1968.65"/>
    </edge>
    <edge id=":0/13_9" function="internal">
        <lane id=":0/13_9_0" index="0" speed="13.90" length="4.82" shape="41.35,1981.65 40.11,1980.83 39.70,1980.00 40.11,1979.17 41.35,1978.35"/>
    </edge>
    <edge id=":0/13_10" function="internal">
        <lane id=":0/13_10_0" index="0" speed="13.90" length="5.00" shape="38.25,1968.65 38.44,1970.01 39.02,1970.97 39.99,1971.56 41.35,1971.75"/>
    </edge>
    <edge id=":0/13_11" function="internal">
        <lane id=":0/13_11_0" index="0" speed="13.90" length="22.70" shape="38.25,1968.65 38.25,1975.39 38.25,1980.00 38.25,1984.61 38.25,1991.35"/>
        <lane id=":0/13_11_1" index="1" speed="13.90" length="22.70" shape="34.95,1968.65 34.95,1975.39 34.95,1980.00 34.95,1984.61 34.95,1991.35"/>
        <lane id=":0/13_11_2" index="2" speed="13.90" length="22.70" shape="31.65,1968.65 31.65,1975.39 31.65,1980.00 31.65,1984.61 31.65,1991.35"/>
    </edge>
    <edge id=":0/13_14" function="internal">
        <lane id=":0/13_14_0" index="0" speed="13.90" length="7.47" shape="31.65,1968.65 30.84,1974.34 29.95,1975.82"/>
    </edge>
    <edge id=":0/13_15" function="internal">
        <lane id=":0/13_15_0" index="0" speed="13.90" length="2.41" shape="31.65,1968.65 30.82,1969.89 30.00,1970.30"/>
    </edge>
    <edge id=":0/13_22" function="internal">
        <lane id=":0/13_22_0" index="0" speed="13.90" length="13.50" shape="29.95,1975.82 28.40,1978.40 24.34,1980.84 18.65,1981.65"/>
    </edge>
    <edge id=":0/13_23" function="internal">
        <lane id=":0/13_23_0" index="0" speed="13.90" length="2.41" shape="30.00,1970.30 29.18,1969.89 28.35,1968.65"/>
    </edge>
    <edge id=":0/13_16" function="internal">
        <lane id=":0/13_16_0" index="0" speed="13.90" length="5.00" shape="18.65,1971.75 20.01,1971.56 20.98,1970.97 21.56,1970.01 21.75,1968.65"/>
    </edge>
    <edge id=":0/13_17" function="internal">
        <lane id=":0/13_17_0" index="0" speed="13.90" length="22.70" shape="18.65,1975.05 25.39,1975.05 30.00,1975.05 34.61,1975.05 41.35,1975.05"/>
    </edge>
    <edge id=":0/13_18" function="internal">
        <lane id=":0/13_18_0" index="0" speed="13.90" length="20.97" shape="18.65,1978.35 24.34,1979.16 28.40,1981.60 30.84,1985.66 31.65,1991.35"/>
    </edge>
    <edge id=":0/13_19" function="internal">
        <lane id=":0/13_19_0" index="0" speed="13.90" length="4.82" shape="18.65,1978.35 19.89,1979.18 20.30,1980.00 19.89,1980.83 18.65,1981.65"/>
    </edge>
    <edge id=":0/14_0" function="internal">
        <lane id=":0/14_0_0" index="0" speed="13.90" length="5.00" shape="21.75,2141.35 21.56,2139.99 20.98,2139.03 20.01,2138.44 18.65,2138.25"/>
    </edge>
    <edge id=":0/14_1" function="internal">
        <lane id=":0/14_1_0" index="0" speed="13.90" length="22.70" shape="21.75,2141.35 21.75,2134.61 21.75,2130.00 21.75,2125.39 21.75,2118.65"/>
        <lane id=":0/14_1_1" index="1" speed="13.90" length="22.70" shape="25.05,2141.35 25.05,2134.61 25.05,2130.00 25.05,2125.39 25.05,2118.65"/>
        <lane id=":0/14_1_2" index="2" speed="13.90" length="22.70" shape="28.35,2141.35 28.35,2134.61 28.35,2130.00 28.35,2125.39 28.35,2118.65"/>
    </edge>
    <edge id=":0/14_4" function="internal">
        <lane id=":0/14_4_0" index="0" speed="13.90" length="7.47" shape="28.35,2141.35 29.16,2135.66 30.05,2134.18"/>
    </edge>
    <edge id=":0/14_5" function="internal">
        <lane id=":0/14_5_0" index="0" speed="13.90" length="2.41" shape="28.35,2141.35 29.17,2140.11 30.00,2139.70"/>
    </edge>
    <edge id=":0/14_20" function="internal">
        <lane id=":0/14_20_0" index="0" speed="13.90" length="13.50" shape="30.05,2134.18 31.60,2131.60 35.66,2129.16 41.35,2128.35"/>
    </edge>
    <edge id=":0/14_21" function="internal">
        <lane id=":0/14_21_0" index="0" speed="13.90" length="2.41" shape="30.00,2139.70 30.82,2140.11 31.65,2141.35"/>
    </edge>
    <edge id=":0/14_6" function="internal">
        <lane id=":0/14_6_0" index="0" speed="13.90" length="5.00" shape="41.35,2138.25 39.99,2138.44 39.02,2139.03 38.44,2139.99 38.25,2141.35"/>
    </edge>
    <edge id=":0/14_7" function="internal">
        <lane id=":0/14_7_0" index="0" speed="13.90" length="22.70" shape="41.35,2134.95 34.61,2134.95 30.00,2134.95 25.39,2134.95 18.65,2134.95"/>
    </edge>
    <edge id=":0/14_8" function="internal">