<configuration>
    <input>
        <net-file value="grid.net.xml"/>
        <route-files value="grid-scene.rou.xml"/>
	<remote-port value="2081"/>
    </input>

    <time>
        <begin value="0"/>
        <end value="2000"/>
    </time>

    <processing>
        <time-to-teleport value="-1"/>
    </processing>

</configuration>