<?xml version="1.0" encoding="UTF-8"?>

<!-- generated on Wed Jun 12 23:21:49 2019 by SUMO duarouter Version 0.27.1
<?xml version="1.0" encoding="UTF-8"?>

<configuration xmlns:xsi="http://www.w3.org/2001/XMLSchema-instance" xsi:noNamespaceSchemaLocation="http://sumo.dlr.de/xsd/duarouterConfiguration.xsd">

    <input>
        <net-file value="alcalahenares_3L3h_nomaps_timeALL_taz5-taz50S_01.net.xml"/>
        <trip-files value="alcalahenares_3L3h_nomaps_timeALL_taz5-taz50S_01.trip.xml"/>
    </input>

    <output>
        <output-file value="alcalahenares_3L3h_nomaps_timeALL_taz5-taz50S_01.routes.xml"/>
    </output>

    <processing>
        <ignore-errors value="true"/>
        <max-alternatives value="10"/>
        <remove-loops value="true"/>
        <repair value="true"/>
        <repair.from value="true"/>
        <repair.to value="true"/>
    </processing>

    <time>
        <begin value="0"/>
        <end value="3600"/>
    </time>

</configuration>
-->

<routes xmlns:xsi="http://www.w3.org/2001/XMLSchema-instance" xsi:noNamespaceSchemaLocation="http://sumo.dlr.de/xsd/routes_file.xsd">
    <vehicle id="63" depart="0.79" departLane="best" departSpeed="0.00" fromTaz="5" toTaz="50">
        <route edges="22726045 180049719 180049722 125233795#0 125233795#1 22725997#4 23957429#0 23957429#1 23957428#2 23957428#3 23957428#4 23957447 23904701#1 23904701#2 23904701#3 23904701#4 77806028#0 77806028#1 77806028#2 77806028#3 77806026#3 77806026#4 77806016#0 77806016#1 77806016#2 77806016#3 77806016#4 19916359#7 19916359#0 19916359#1 151292464#0 151292464#1 151292464#2 151292464#3 -304149611#6 -304149611#5 -304149611#4 -304149611#3 -304149611#2 -304149611#1 -304149611#0 304149612#0 304149612#1 304149612#2 304149612#3 409579349 174188604#0 174188604#1 174188604#2 174188604#3 32900470#5 395906341#0 395906341#1 -227354784#6 -227354784#5 -227354784#4 -227354784#3 -227354784#2 -227354784#1 -158349118 -158349113#1 -158349113#0 357265153#2 357265153#3 357265153#4 32900481#0 32900481#1 32900481#2 32900481#3 75117911#0 75117911#1 75117911#2 75117911#3 75117911#4 75117911#5 75117911#6 75117911#7 75117911#8 75117911#9 75117911#10 75117911#11 75117911#12 23907635#1 23907635#2 23907635#3 151292453#0 151292453#1 151292453#2 151292453#3 151292453#4 151292453#5 151292453#6 151292453#7 151292453#8 151292453#9 151292453#10 151292453#11 23907628#3 23907628#4 -75689947#6 -75689947#5 -75689947#4 -75689947#3 -75689947#2 -75689947#1 -75689947#0 -75482905 75482908 123483825#0 123483825#1 123483825#2 221092677#1 29289637 29289692#0 29289692#1 29289692#2 29289692#3 29289692#4 29289692#5 29289692#6 29289692#7 29289692#8 29289692#9 29289692#10 29289692#11 29289692#12 29289692#13 29289692#14 29289692#15 29289692#16 29289692#17"/>
    </vehicle>
    <vehicle id="283" depart="2.83" departLane="best" departSpeed="0.00" fromTaz="5" toTaz="50">
        <route edges="180049723#0 180049723#1 23957428#4 23957447 23904701#1 23904701#2 23904701#3 23904701#4 77806028#0 77806028#1 77806028#2 77806028#3 77806026#3 77806026#4 77806016#0 77806016#1 77806016#2 77806016#3 77806016#4 19916359#7 19916359#0 19916359#1 151292464#0 151292464#1 151292464#2 151292464#3 -304149611#6 -304149611#5 -304149611#4 -304149611#3 -304149611#2 -304149611#1 -304149611#0 304149612#0 304149612#1 304149612#2 304149612#3 409579349 174188604#0 174188604#1 174188604#2 174188604#3 32900470#5 395906341#0 395906341#1 -227354784#6 -227354784#5 -227354784#4 -227354784#3 -227354784#2 -227354784#1 -158349118 -158349113#1 -158349113#0 357265153#2 357265153#3 357265153#4 32900481#0 32900481#1 32900481#2 32900481#3 75117911#0 75117911#1 75117911#2 75117911#3 75117911#4 75117911#5 75117911#6 75117911#7 75117911#8 75117911#9 75117911#10 75117911#11 75117911#12 23907635#1 23907635#2 23907635#3 151292453#0 151292453#1 151292453#2 151292453#3 151292453#4 151292453#5 151292453#6 151292453#7 151292453#8 151292453#9 151292453#10 151292453#11 23907628#3 23907628#4 -75689947#6 -75689947#5 -75689947#4 -75689947#3 -75689947#2 -75689947#1 -75689947#0 -75482905 75482908 123483825#0 123483825#1 123483825#2 221092677#1 221092677#2 221092677#3 221092677#4 221092677#5 221092677#6 221092677#7 221092677#8 221092677#9 221092677#10 221092677#11 221092677#12 221092677#13 221092677#14 221092677#15 -29289645#0 29287875#3 29287875#4 29287875#5 29287875#0 29287875#1 29289538#0 29289538#1 29289538#2"/>
    </vehicle>
    <vehicle id="519" depart="4.77" departLane="best" departSpeed="0.00" fromTaz="5" toTaz="50">
        <route edges="22726045 180049719 180049722 125233795#0 125233795#1 22725997#4 23957429#0 23957429#1 23957428#2 23957428#3 23957428#4 23957447 23904701#1 23904701#2 23904701#3 23904701#4 77806028#0 77806028#1 77806028#2 77806028#3 77806026#3 77806026#4 77806016#0 77806016#1 77806016#2 77806016#3 77806016#4 19916359#7 19916359#0 19916359#1 151292464#0 151292464#1 151292464#2 151292464#3 -304149611#6 -304149611#5 -304149611#4 -304149611#3 -304149611#2 -304149611#1 -304149611#0 304149612#0 304149612#1 304149612#2 304149612#3 409579349 174188604#0 174188604#1 174188604#2 174188604#3 32900470#5 395906341#0 395906341#1 -227354784#6 -227354784#5 -227354784#4 -227354784#3 -227354784#2 -227354784#1 -158349118 -158349113#1 -158349113#0 357265153#2 357265153#3 357265153#4 32900481#0 32900481#1 32900481#2 32900481#3 75117911#0 75117911#1 75117911#2 75117911#3 75117911#4 75117911#5 75117911#6 75117911#7 75117911#8 75117911#9 75117911#10 75117911#11 75117911#12 23907635#1 23907635#2 23907635#3 151292453#0 151292453#1 151292453#2 151292453#3 151292453#4 151292453#5 151292453#6 151292453#7 151292453#8 151292453#9 151292453#10 151292453#11 23907628#3 23907628#4 -75689947#6 -75689947#5 -75689947#4 -75689947#3 -75689947#2 -75689947#1 -75689947#0 -382134172#2 -382134172#1 -382134172#0 382134171#0 382134171#1 382134171#2 180619324#2 180619324#3 183334630 405649771 -183372461 -313495200 313495203 179175827#1 179175827#2 179175827#3 35968161 313495209 179175847 35968162#0 35968162#1 83134395 45896979#5 45896970#0 45896970#1 45896970#2 45896970#3 50170637"/>
    </vehicle>
    <vehicle id="245" depart="11.12" departLane="best" departSpeed="0.00" fromTaz="5" toTaz="50">
        <route edges="180049723#0 180049723#1 23957428#4 23957447 23904701#1 23904701#2 23904701#3 23904701#4 77806028#0 77806028#1 77806028#2 77806028#3 77806026#3 77806026#4 77806016#0 77806016#1 77806016#2 77806016#3 77806016#4 19916359#7 19916359#0 19916359#1 151292464#0 151292464#1 151292464#2 151292464#3 -304149611#6 -304149611#5 -304149611#4 -304149611#3 -304149611#2 -304149611#1 -304149611#0 304149612#0 304149612#1 304149612#2 304149612#3 409579349 174188604#0 174188604#1 174188604#2 174188604#3 32900470#5 395906341#0 395906341#1 -227354784#6 -227354784#5 -227354784#4 -227354784#3 -227354784#2 -227354784#1 -158349118 -158349113#1 -158349113#0 357265153#2 357265153#3 357265153#4 32900481#0 32900481#1 32900481#2 32900481#3 75117911#0 75117911#1 75117911#2 75117911#3 75117911#4 75117911#5 75117911#6 75117911#7 75117911#8 75117911#9 75117911#10 75117911#11 75117911#12 23907635#1 23907635#2 23907635#3 151292453#0 151292453#1 151292453#2 151292453#3 151292453#4 151292453#5 151292453#6 151292453#7 151292453#8 151292453#9 151292453#10 151292453#11 23907628#3 23907628#4 -75689947#6 -75689947#5 -75689947#4 -75689947#3 -75689947#2 -75689947#1 -75689947#0 -75482905 75482908 123483825#0 123483825#1 123483825#2 221092677#1 29289637 29289692#0 29289692#1 29289692#2 29289692#3 29289692#4 29289692#5 29289692#6 29289692#7 29289692#8 29289692#9 29289692#10 29289692#11 29289692#12 29289692#13 29289692#14 29289692#15 29289692#16 29289692#17 29289692#18 29289692#19 29289692#20 29289692#21 29289692#22 29289692#23 29289692#24 29289692#25 29289692#26 29289692#27 29289682#1 29289682#2 29289682#3 29288133#2 29288133#3 29288133#4 29288133#5 29288133#0 35582262 29289581#1 29289581#2 29289581#3 409045422#0 409045422#1 409045422#2 409045422#3 409045422#4 409045422#5 409045422#6 409045422#7 409045422#8 409045422#9 409045422#10 409045422#11 409045422#12 409045422#13 409045422#14 409045422#15 409045422#16 409045422#17"/>
    </vehicle>
    <vehicle id="1581" depart="14.07" departLane="best" departSpeed="0.00" fromTaz="5" toTaz="50">
        <route edges="22726045 180049719 180049722 125233795#0 125233795#1 22725997#4 23957429#0 23957429#1 23957428#2 23957428#3 23957428#4 23957447 23904701#1 23904701#2 23904701#3 23904701#4 77806028#0 77806028#1 77806028#2 77806028#3 77806026#3 77806026#4 77806016#0 77806016#1 77806016#2 77806016#3 77806016#4 19916359#7 19916359#0 19916359#1 151292464#0 151292464#1 151292464#2 151292464#3 -304149611#6 -304149611#5 -304149611#4 -304149611#3 -304149611#2 -304149611#1 -304149611#0 304149612#0 304149612#1 304149612#2 304149612#3 409579349 174188604#0 174188604#1 174188604#2 174188604#3 32900470#5 395906341#0 395906341#1 -227354784#6 -227354784#5 -227354784#4 -227354784#3 -227354784#2 -227354784#1 -158349118 -158349113#1 -158349113#0 357265153#2 357265153#3 357265153#4 32900481#0 32900481#1 32900481#2 32900481#3 75117911#0 75117911#1 75117911#2 75117911#3 75117911#4 75117911#5 75117911#6 75117911#7 75117911#8 75117911#9 75117911#10 75117911#11 75117911#12 23907635#1 23907635#2 23907635#3 151292453#0 151292453#1 151292453#2 151292453#3 151292453#4 151292453#5 151292453#6 151292453#7 151292453#8 151292453#9 151292453#10 151292453#11 23907628#3 23907628#4 -75689947#6 -75689947#5 -75689947#4 -75689947#3 -75689947#2 -75689947#1 -75689947#0 -75482905 75482908 123483825#0 123483825#1 123483825#2 221092677#1"/>
    </vehicle>
    <vehicle id="1351" depart="16.08" departLane="best" departSpeed="0.00" fromTaz="5" toTaz="50">
        <route edges="22726045 180049719 180049722 125233795#0 125233795#1 22725997#4 23957429#0 23957429#1 23957428#2 23957428#3 23957428#4 23957447 23904701#1 23904701#2 23904701#3 23904701#4 77806028#0 77806028#1 77806028#2 77806028#3 77806026#3 77806026#4 77806016#0 77806016#1 77806016#2 77806016#3 77806016#4 19916359#7 19916359#0 19916359#1 151292464#0 151292464#1 151292464#2 151292464#3 -304149611#6 -304149611#5 -304149611#4 -304149611#3 -304149611#2 -304149611#1 -304149611#0 304149612#0 304149612#1 304149612#2 304149612#3 409579349 174188604#0 174188604#1 174188604#2 174188604#3 32900470#5 395906341#0 395906341#1 -227354784#6 -227354784#5 -227354784#4 -227354784#3 -227354784#2 -227354784#1 -158349118 -158349113#1 -158349113#0 357265153#2 357265153#3 357265153#4 32900481#0 32900481#1 32900481#2 32900481#3 75117911#0 75117911#1 75117911#2 75117911#3 75117911#4 75117911#5 75117911#6 75117911#7 75117911#8 75117911#9 75117911#10 75117911#11 75117911#12 23907635#1 23907635#2 23907635#3 151292453#0 151292453#1 151292453#2 151292453#3 151292453#4 151292453#5 151292453#6 151292453#7 151292453#8 151292453#9 151292453#10 151292453#11 23907628#3 23907628#4 -75689947#6 -75689947#5 -75689947#4 -75689947#3 -75689947#2 -75689947#1 -75689947#0 -75482905 75482908 123483825#0 123483825#1 123483825#2 221092677#1 221092677#2 221092677#3 221092677#4 221092677#5 221092677#6 221092677#7 221092677#8 221092677#9 221092677#10 221092677#11 221092677#12 221092677#13 221092677#14 221092677#15 29289645#1 29289645#2"/>
    </vehicle>
    <vehicle id="88" depart="16.72" departLane="best" departSpeed="0.00" fromTaz="5" toTaz="50">
        <route edges="180049723#0 180049723#1 23957428#4 23957447 23904701#1 23904701#2 23904701#3 23904701#4 77806028#0 77806028#1 77806028#2 77806028#3 77806026#3 77806026#4 77806016#0 77806016#1 77806016#2 77806016#3 77806016#4 19916359#7 19916359#0 19916359#1 151292464#0 151292464#1 151292464#2 151292464#3 -304149611#6 -304149611#5 -304149611#4 -304149611#3 -304149611#2 -304149611#1 -304149611#0 304149612#0 304149612#1 304149612#2 304149612#3 409579349 174188604#0 174188604#1 174188604#2 174188604#3 32900470#5 395906341#0 395906341#1 -227354784#6 -227354784#5 -227354784#4 -227354784#3 -227354784#2 -227354784#1 -158349118 -158349113#1 -158349113#0 357265153#2 357265153#3 357265153#4 32900481#0 32900481#1 32900481#2 32900481#3 75117911#0 75117911#1 75117911#2 75117911#3 75117911#4 75117911#5 75117911#6 75117911#7 75117911#8 75117911#9 75117911#10 75117911#11 75117911#12 23907635#1 23907635#2 23907635#3 151292453#0 151292453#1 151292453#2 151292453#3 151292453#4 151292453#5 151292453#6 151292453#7 151292453#8 151292453#9 151292453#10 151292453#11 23907628#3 23907628#4 -75689947#6 -75689947#5 -75689947#4 -75689947#3 -75689947#2 -75689947#1 -75689947#0 -75482905 75482908 123483825#0 123483825#1 123483825#2 221092677#1 29289637 29289692#0 29289692#1 29289692#2 29289692#3 29289692#4 29289692#5 29289692#6 29289692#7 29289692#8 29289692#9 29289692#10 29289692#11 29289692#12 29289692#13 29289692#14 29289692#15 29289692#16 29289692#17 29289692#18 29289692#19 29289692#20 29289692#21 29289692#22 29289692#23 29289692#24 29289692#25 29289692#26 29289692#27 29289682#1 29289682#2 29289682#3 29288133#2 29288133#3 29288133#4 29288133#5 29288185 29288160 -91339213 91339196 422632976 35582259#1 38781748#0 38781748#1 38781748#2 38781748#3 38781732#2 38781736"/>
    </vehicle>
    <vehicle id="9" depart="18.39" departLane="best" departSpeed="0.00" fromTaz="5" toTaz="50">
        <route edges="180049723#0 180049723#1 23957428#4 23957447 23904701#1 23904701#2 23904701#3 23904701#4 77806028#0 77806028#1 77806028#2 77806028#3 77806026#3 77806026#4 77806016#0 77806016#1 77806016#2 77806016#3 77806016#4 19916359#7 19916359#0 19916359#1 151292464#0 151292464#1 151292464#2 151292464#3 -304149611#6 -304149611#5 -304149611#4 -304149611#3 -304149611#2 -304149611#1 -304149611#0 304149612#0 304149612#1 304149612#2 304149612#3 409579349 174188604#0 174188604#1 174188604#2 174188604#3 32900470#5 395906341#0 395906341#1 -227354784#6 -227354784#5 -227354784#4 -227354784#3 -227354784#2 -227354784#1 -158349118 -158349113#1 -158349113#0 357265153#2 357265153#3 357265153#4 32900481#0 32900481#1 32900481#2 32900481#3 75117911#0 75117911#1 75117911#2 75117911#3 75117911#4 75117911#5 75117911#6 75117911#7 75117911#8 75117911#9 75117911#10 75117911#11 75117911#12 23907635#1 23907635#2 23907635#3 151292453#0 151292453#1 151292453#2 151292453#3 151292453#4 151292453#5 151292453#6 151292453#7 151292453#8 151292453#9 151292453#10 151292453#11 23907628#3 23907628#4 -75689947#6 -75689947#5 -75689947#4 -75689947#3 -75689947#2 -75689947#1 -75689947#0 -382134172#2 -382134172#1 -382134172#0 382134171#0 382134171#1 382134171#2 180619324#2 180619324#3 183334630 405649771 -183372461 -313495200 313495203 179175827#1"/>
    </vehicle>
    <vehicle id="749" depart="18.97" departLane="best" departSpeed="0.00" fromTaz="5" toTaz="50">
        <route edges="180049723#0 180049723#1 23957428#4 23957447 23904701#1 23904701#2 23904701#3 23904701#4 77806028#0 77806028#1 77806028#2 77806028#3 77806026#3 77806026#4 77806016#0 77806016#1 77806016#2 77806016#3 77806016#4 19916359#7 19916359#0 19916359#1 151292464#0 151292464#1 151292464#2 151292464#3 -304149611#6 -304149611#5 -304149611#4 -304149611#3 -304149611#2 -304149611#1 -304149611#0 304149612#0 304149612#1 304149612#2 304149612#3 409579349 174188604#0 174188604#1 174188604#2 174188604#3 32900470#5 395906341#0 395906341#1 -227354784#6 -227354784#5 -227354784#4 -227354784#3 -227354784#2 -227354784#1 -158349118 -158349113#1 -158349113#0 357265153#2 357265153#3 357265153#4 32900481#0 32900481#1 32900481#2 32900481#3 75117911#0 75117911#1 75117911#2 75117911#3 75117911#4 75117911#5 75117911#6 75117911#7 75117911#8 75117911#9 75117911#10 75117911#11 75117911#12 23907635#1 23907635#2 23907635#3 151292453#0 151292453#1 151292453#2 151292453#3 151292453#4 151292453#5 151292453#6 151292453#7 151292453#8 151292453#9 151292453#10 151292453#11 23907628#3 23907628#4 -75689947#6 -75689947#5 -75689947#4 -75689947#3 -75689947#2 -75689947#1 -75689947#0 -75482905 75482908 123483825#0 123483825#1 123483825#2 221092677#1 221092677#2 221092677#3 221092677#4 221092677#5 221092677#6 221092677#7 221092677#8 221092677#9 221092677#10 221092677#11 221092677#12 221092677#13 29289625#1 29288176#5 29288176#6 29288176#0 29289529#0 29289529#1 29288179#3 29289567#5"/>
    </vehicle>
    <vehicle id="412" depart="19.61" departLane="best" departSpeed="0.00" fromTaz="5" toTaz="50">
        <route edges="180049723#0 180049723#1 23957428#4 23957447 23904701#1 23904701#2 23904701#3 23904701#4 77806028#0 77806028#1 77806028#2 77806028#3 77806026#3 77806026#4 77806016#0 77806016#1 77806016#2 77806016#3 77806016#4 19916359#7 19916359#0 19916359#1 151292464#0 151292464#1 151292464#2 151292464#3 -304149611#6 -304149611#5 -304149611#4 -304149611#3 -304149611#2 -304149611#1 -304149611#0 304149612#0 304149612#1 304149612#2 304149612#3 409579349 174188604#0 174188604#1 174188604#2 174188604#3 32900470#5 395906341#0 395906341#1 -227354784#6 -227354784#5 -227354784#4 -227354784#3 -227354784#2 -227354784#1 -158349118 -158349113#1 -158349113#0 357265153#2 357265153#3 357265153#4 32900481#0 32900481#1 32900481#2 32900481#3 75117911#0 75117911#1 75117911#2 75117911#3 75117911#4 75117911#5 75117911#6 75117911#7 75117911#8 75117911#9 75117911#10 75117911#11 75117911#12 23907635#1 23907635#2 23907635#3 151292453#0 151292453#1 151292453#2 151292453#3 151292453#4 151292453#5 151292453#6 151292453#7 151292453#8 151292453#9 151292453#10 151292453#11 23907628#3 23907628#4 -75689947#6 -75689947#5 -75689947#4 -75689947#3 -75689947#2 -75689947#1 -75689947#0 -75482905 75482908 123483825#0 123483825#1 123483825#2 221092677#1 221092677#2 221092677#3 221092677#4 221092677#5 221092677#6 221092677#7 221092677#8 221092677#9 221092677#10 221092677#11 221092677#12 221092677#13 29289625#1 29288176#5 29288176#6 29288176#0 29289529#0 29289529#1 29288179#3 29289567#5 29289567#6 29289567#0 -29289561#6 -29289561#5 -29289561#4 -29289561#3 -29289561#2 -29289561#1"/>
    </vehicle>
    <vehicle id="1599" depart="21.76" departLane="best" departSpeed="0.00" fromTaz="5" toTaz="50">
        <route edges="180049723#0 180049723#1 23957428#4 23957447 23904701#1 23904701#2 23904701#3 23904701#4 77806028#0 77806028#1 77806028#2 77806028#3 77806026#3 77806026#4 77806016#0 77806016#1 77806016#2 77806016#3 77806016#4 19916359#7 19916359#0 19916359#1 151292464#0 151292464#1 151292464#2 151292464#3 -304149611#6 -304149611#5 -304149611#4 -304149611#3 -304149611#2 -304149611#1 -304149611#0 304149612#0 304149612#1 304149612#2 304149612#3 409579349 174188604#0 174188604#1 174188604#2 174188604#3 32900470#5 395906341#0 395906341#1 -227354784#6 -227354784#5 -227354784#4 -227354784#3 -227354784#2 -227354784#1 -158349118 -158349113#1 -158349113#0 357265153#2 357265153#3 357265153#4 32900481#0 32900481#1 32900481#2 32900481#3 75117911#0 75117911#1 75117911#2 75117911#3 75117911#4 75117911#5 75117911#6 75117911#7 75117911#8 75117911#9 75117911#10 75117911#11 75117911#12 23907635#1 23907635#2 23907635#3 151292453#0 151292453#1 151292453#2 151292453#3 151292453#4 151292453#5 151292453#6 151292453#7 151292453#8 151292453#9 151292453#10 151292453#11 23907628#3 23907628#4 -75689947#6 -75689947#5 -75689947#4 -75689947#3 -75689947#2 -75689947#1 -75689947#0 -75482905 75482908 123483825#0 123483825#1 123483825#2 221092677#1 29289637 29289692#0 29289692#1 29289692#2 29289692#3 29289692#4 29289692#5 29289692#6 29289692#7 29289692#8 29289692#9 29289692#10 29289692#11 29289692#12 29289692#13 29289692#14 29289692#15 29289692#16 29289692#17 29289692#18 29289692#19 29289692#20 29289692#21 29289692#22 29289692#23 29289692#24 29289692#25 29289692#26 29289692#27 29289682#1 29289682#2 29289682#3 29288133#2 29288133#3 29288133#4 29288133#5 29288185 29288160"/>
    </vehicle>
    <vehicle id="1397" depart="22.82" departLane="best" departSpeed="0.00" fromTaz="5" toTaz="50">
        <route edges="22726045 180049719 180049722 125233795#0 125233795#1 22725997#4 23957429#0 23957429#1 23957428#2 23957428#3 23957428#4 23957447 23904701#1 23904701#2 23904701#3 23904701#4 77806028#0 77806028#1 77806028#2 77806028#3 77806026#3 77806026#4 77806016#0 77806016#1 77806016#2 77806016#3 77806016#4 19916359#7 19916359#0 19916359#1 151292464#0 151292464#1 151292464#2 151292464#3 -304149611#6 -304149611#5 -304149611#4 -304149611#3 -304149611#2 -304149611#1 -304149611#0 304149612#0 304149612#1 304149612#2 304149612#3 409579349 174188604#0 174188604#1 174188604#2 174188604#3 32900470#5 395906341#0 395906341#1 -227354784#6 -227354784#5 -227354784#4 -227354784#3 -227354784#2 -227354784#1 -158349118 -158349113#1 -158349113#0 357265153#2 357265153#3 357265153#4 32900481#0 32900481#1 32900481#2 32900481#3 75117911#0 75117911#1 75117911#2 75117911#3 75117911#4 75117911#5 75117911#6 75117911#7 75117911#8 75117911#9 75117911#10 75117911#11 75117911#12 23907635#1 23907635#2 23907635#3 151292453#0 151292453#1 151292453#2 151292453#3 151292453#4 151292453#5 151292453#6 151292453#7 151292453#8 151292453#9 151292453#10 151292453#11 23907628#3 23907628#4 -75689947#6 -75689947#5 -75689947#4 -75689947#3 -75689947#2 -75689947#1 -75689947#0 -382134172#2 -382134172#1 -382134172#0 382134171#0 382134171#1 382134171#2 180619324#2 180619324#3 183334630 314898332"/>
    </vehicle>
    <vehicle id="391" depart="23.05" departLane="best" departSpeed="0.00" fromTaz="5" toTaz="50">
        <route edges="180049723#0 180049723#1 23957428#4 23957447 23904701#1 23904701#2 23904701#3 23904701#4 77806028#0 77806028#1 77806028#2 77806028#3 77806026#3 77806026#4 77806016#0 77806016#1 77806016#2 77806016#3 77806016#4 19916359#7 19916359#0 19916359#1 151292464#0 151292464#1 151292464#2 151292464#3 -304149611#6 -304149611#5 -304149611#4 -304149611#3 -304149611#2 -304149611#1 -304149611#0 304149612#0 304149612#1 304149612#2 304149612#3 409579349 174188604#0 174188604#1 174188604#2 174188604#3 32900470#5 395906341#0 395906341#1 -227354784#6 -227354784#5 -227354784#4 -227354784#3 -227354784#2 -227354784#1 -158349118 -158349113#1 -158349113#0 357265153#2 357265153#3 357265153#4 32900481#0 32900481#1 32900481#2 32900481#3 75117911#0 75117911#1 75117911#2 75117911#3 75117911#4 75117911#5 75117911#6 75117911#7 75117911#8 75117911#9 75117911#10 75117911#11 75117911#12 23907635#1 23907635#2 23907635#3 151292453#0 151292453#1 151292453#2 151292453#3 151292453#4 151292453#5 151292453#6 151292453#7 151292453#8 151292453#9 151292453#10 151292453#11 23907628#3 23907628#4 -75689947#6 -75689947#5 -75689947#4 -75689947#3 -75689947#2 -75689947#1 -75689947#0 -382134172#2 -382134172#1 -382134172#0 382134171#0 382134171#1 382134171#2 180619324#2 180619324#3 183334630 405649771 -183372461 -313495200 313495203 179175827#1 179175827#2"/>
    </vehicle>
    <vehicle id="1144" depart="23.89" departLane="best" departSpeed="0.00" fromTaz="5" toTaz="50">
        <route edges="22726045 180049719 180049722 125233795#0 125233795#1 22725997#4 23957429#0 23957429#1 23957428#2 23957428#3 23957428#4 23957447 23904701#1 23904701#2 23904701#3 23904701#4 77806028#0 77806028#1 77806028#2 77806028#3 77806026#3 77806026#4 77806016#0 77806016#1 77806016#2 77806016#3 77806016#4 19916359#7 19916359#0 19916359#1 151292464#0 151292464#1 151292464#2 151292464#3 -304149611#6 -304149611#5 -304149611#4 -304149611#3 -304149611#2 -304149611#1 -304149611#0 304149612#0 304149612#1 304149612#2 304149612#3 409579349 174188604#0 174188604#1 174188604#2 174188604#3 32900470#5 395906341#0 395906341#1 -227354784#6 -227354784#5 -227354784#4 -227354784#3 -227354784#2 -227354784#1 -158349118 -158349113#1 -158349113#0 357265153#2 357265153#3 357265153#4 32900481#0 32900481#1 32900481#2 32900481#3 75117911#0 75117911#1 75117911#2 75117911#3 75117911#4 75117911#5 75117911#6 75117911#7 75117911#8 75117911#9 75117911#10 75117911#11 75117911#12 23907635#1 23907635#2 23907635#3 151292453#0 151292453#1 151292453#2 151292453#3 151292453#4 151292453#5 151292453#6 151292453#7 151292453#8 151292453#9 151292453#10 151292453#11 23907628#3 23907628#4 -75689947#6 -75689947#5 -75689947#4 -75689947#3 -75689947#2 -75689947#1 -75689947#0 -382134172#2 -382134172#1 -382134172#0 382134171#0 382134171#1 382134171#2 180619324#2 180619324#3 183334630 405649771 -183372461 -313495200 313495203 179175827#1 179175827#2 179175827#3 35968161 313495209 179175847 35968162#0 35968162#1 83134395 45896979#5 45896970#0 45896970#1 45896970#2 45896970#3 50170636#0"/>
    </vehicle>
    <vehicle id="1428" depart="24.44" departLane="best" departSpeed="0.00" fromTaz="5" toTaz="50">
        <route edges="22726045 180049719 180049722 125233795#0 125233795#1 22725997#4 23957429#0 23957429#1 23957428#2 23957428#3 23957428#4 23957447 23904701#1 23904701#2 23904701#3 23904701#4 77806028#0 77806028#1 77806028#2 77806028#3 77806026#3 77806026#4 77806016#0 77806016#1 77806016#2 77806016#3 77806016#4 19916359#7 19916359#0 19916359#1 151292464#0 151292464#1 151292464#2 151292464#3 -304149611#6 -304149611#5 -304149611#4 -304149611#3 -304149611#2 -304149611#1 -304149611#0 304149612#0 304149612#1 304149612#2 304149612#3 409579349 174188604#0 174188604#1 174188604#2 174188604#3 32900470#5 395906341#0 395906341#1 -227354784#6 -227354784#5 -227354784#4 -227354784#3 -227354784#2 -227354784#1 -158349118 -158349113#1 -158349113#0 357265153#2 357265153#3 357265153#4 32900481#0 32900481#1 32900481#2 32900481#3 75117911#0 75117911#1 75117911#2 75117911#3 75117911#4 75117911#5 75117911#6 75117911#7 75117911#8 75117911#9 75117911#10 75117911#11 75117911#12 23907635#1 23907635#2 23907635#3 151292453#0 151292453#1 151292453#2 151292453#3 151292453#4 151292453#5 151292453#6 151292453#7 151292453#8 151292453#9 151292453#10 151292453#11 23907628#3 23907628#4 -75689947#6 -75689947#5 -75689947#4 -75689947#3 -75689947#2 -75689947#1 -75689947#0 -75482905 75482908 123483825#0 123483825#1 123483825#2 221092677#1 221092677#2 221092677#3 221092677#4 221092677#5 221092677#6 221092677#7 221092677#8 221092677#9 221092677#10 221092677#11 221092677#12 221092677#13 29289625#1 29288176#5 29288176#6 29288176#0 29288176#1 29288176#2 29289639#0"/>
    </vehicle>
    <vehicle id="1775" depart="25.86" departLane="best" departSpeed="0.00" fromTaz="5" toTaz="50">
        <route edges="22726045 180049719 180049722 125233795#0 125233795#1 22725997#4 23957429#0 23957429#1 23957428#2 23957428#3 23957428#4 23957447 23904701#1 23904701#2 23904701#3 23904701#4 77806028#0 77806028#1 77806028#2 77806028#3 77806026#3 77806026#4 77806016#0 77806016#1 77806016#2 77806016#3 77806016#4 19916359#7 19916359#0 19916359#1 151292464#0 151292464#1 151292464#2 151292464#3 -304149611#6 -304149611#5 -304149611#4 -304149611#3 -304149611#2 -304149611#1 -304149611#0 304149612#0 304149612#1 304149612#2 304149612#3 409579349 174188604#0 174188604#1 174188604#2 174188604#3 32900470#5 395906341#0 395906341#1 -227354784#6 -227354784#5 -227354784#4 -227354784#3 -227354784#2 -227354784#1 -158349118 -158349113#1 -158349113#0 357265153#2 357265153#3 357265153#4 32900481#0 32900481#1 32900481#2 32900481#3 75117911#0 75117911#1 75117911#2 75117911#3 75117911#4 75117911#5 75117911#6 75117911#7 75117911#8 75117911#9 75117911#10 75117911#11 75117911#12 23907635#1 23907635#2 23907635#3 151292453#0 151292453#1 151292453#2 151292453#3 151292453#4 151292453#5 151292453#6 151292453#7 151292453#8 151292453#9 151292453#10 151292453#11 23907628#3 23907628#4 -75689947#6 -75689947#5 -75689947#4 -75689947#3 -75689947#2 -75689947#1 -75689947#0 -75482905 75482908 123483825#0 123483825#1 123483825#2 221092677#1 29289637 29289692#0 29289692#1 29289692#2 29289692#3 29289692#4 29289692#5 29289692#6 29289692#7 29289692#8 29289692#9 29289692#10 29289692#11 29289692#12 29289692#13 29289692#14 29289692#15 29289692#16 29289692#17 29289692#18 29289692#19 29289692#20 29289692#21 29289692#22 29289692#23 29289692#24 29289692#25 29289692#26 29289692#27 29289682#1 29289682#2 29289682#3 29288133#2 29288133#3 29288133#4 86746441#0 86746441#1"/>
    </vehicle>
    <vehicle id="1387" depart="32.14" departLane="best" departSpeed="0.00" fromTaz="5" toTaz="50">
        <route edges="180049723#0 180049723#1 23957428#4 23957447 23904701#1 23904701#2 23904701#3 23904701#4 77806028#0 77806028#1 77806028#2 77806028#3 77806026#3 77806026#4 77806016#0 77806016#1 77806016#2 77806016#3 77806016#4 19916359#7 19916359#0 19916359#1 151292464#0 151292464#1 151292464#2 151292464#3 -304149611#6 -304149611#5 -304149611#4 -304149611#3 -304149611#2 -304149611#1 -304149611#0 304149612#0 304149612#1 304149612#2 304149612#3 409579349 174188604#0 174188604#1 174188604#2 174188604#3 32900470#5 395906341#0 395906341#1 -227354784#6 -227354784#5 -227354784#4 -227354784#3 -227354784#2 -227354784#1 -158349118 -158349113#1 -158349113#0 357265153#2 357265153#3 357265153#4 32900481#0 32900481#1 32900481#2 32900481#3 75117911#0 75117911#1 75117911#2 75117911#3 75117911#4 75117911#5 75117911#6 75117911#7 75117911#8 75117911#9 75117911#10 75117911#11 75117911#12 23907635#1 23907635#2 23907635#3 151292453#0 151292453#1 151292453#2 151292453#3 151292453#4 151292453#5 151292453#6 151292453#7 151292453#8 151292453#9 151292453#10 151292453#11 23907628#3 23907628#4 -75689947#6 -75689947#5 -75689947#4 -75689947#3 -75689947#2 -75689947#1 -75689947#0 -75482905 75482908 123483825#0 123483825#1 123483825#2 221092677#1 29289637 29289692#0 29289692#1 29289692#2 29289692#3 29289692#4 29289692#5 29289692#6 29289692#7 29289692#8 29289692#9 29289692#10 29289692#11 29289692#12 29289692#13 29289692#14 29289692#15 29289692#16 29289692#17 29289692#18 29289692#19 29289692#20 29289692#21 29289692#22 29289692#23 29289692#24 29289692#25 29289692#26 29289692#27 29289682#1 29289682#2 29289682#3 29288133#2 29288133#3 29288133#4 29288133#5 29288133#0 35582262 29289581#1 29289581#2 29289581#3 409045422#0 409045422#1 409045422#2 409045422#3 409045422#4 409045422#5 409045422#6 409045422#7 409045422#8 409045422#9 409045422#10 409045422#11 409045422#12 409045422#13 409045422#14 409045422#15 409045422#16 409045422#17 409045422#18 409045422#19 409045422#20 409045422#21 409045422#22 409045422#23 409045422#24 409045422#25 409045422#26 409045422#27 409045422#28 409045422#29 409045422#30 409045422#31"/>
    </vehicle>