<?xml version="1.0" encoding="UTF-8"?>

<!-- generated on Thu Nov 21 22:00:06 2019 by SUMO duarouter Version 0.27.1
<?xml version="1.0" encoding="UTF-8"?>

<configuration xmlns:xsi="http://www.w3.org/2001/XMLSchema-instance" xsi:noNamespaceSchemaLocation="http://sumo.dlr.de/xsd/duarouterConfiguration.xsd">

    <input>
        <net-file value="alcalahenares_Emergency_pru_01.net.xml"/>
        <trip-files value="alcalahenares_Emergency_pru_01.trip.xml"/>
    </input>

    <output>
        <output-file value="alcalahenares_Emergency_pru_01.routes.xml"/>
    </output>

    <processing>
        <ignore-errors value="true"/>
        <max-alternatives value="10"/>
        <remove-loops value="true"/>
        <repair value="true"/>
        <repair.from value="true"/>
        <repair.to value="true"/>
    </processing>

    <time>
        <begin value="0"/>
        <end value="3600"/>
    </time>

</configuration>
-->

<routes xmlns:xsi="http://www.w3.org/2001/XMLSchema-instance" xsi:noNamespaceSchemaLocation="http://sumo.dlr.de/xsd/routes_file.xsd">
	<vType id="FIREMEN" vClass="bus" emissionClass="HBEFA3/Bus" />
	<vehicle id="120044" depart="607.38" departLane="best" departSpeed="0.00" fromTaz="1120006" toTaz="1120003" type="FIREMEN" >
		<route edges="75117908#5 75117908#6 75117908#0 75117908#1 75117908#2 75117830#0 75117830#1 23907595#2 75117838 106134336 106134328 106134392#0 106134392#1 106134392#2 75117855 75689698#3 75689698#4 75117872 75117863#2 409064668#0 409064668#1 409064668#2 409064668#3 118195341 -443446515#3 -443446515#2 -443446515#1 -443446515#0 -75126438#1 -75126438#0 -75117905 75117896 -75117887#2 -75117887#1 -75117887#0 -75117923#5 -75117923#4 -75117923#3 -75117923#2 -75117923#1 -75117923#0 -23881461#5 -23881461#4 -23881461#3 -23881461#2 -23881461#1 -23881461#0 23867718#0 23867718#1 151292468 151292466#0 151292466#1"/>
	</vehicle>
	<vehicle id="120029" depart="619.60" departLane="best" departSpeed="0.00" fromTaz="1120006" toTaz="1120003" type="FIREMEN" >
		<route edges="75117908#5 75117908#6 75117908#0 75117908#1 75117908#2 75117830#0 75117830#1 23907595#2 75117838 106134336 106134328 106134392#0 106134392#1 106134392#2 75117855 75689698#3 75689698#4 75117872 75117863#2 409064668#0 409064668#1 409064668#2 409064668#3 118195341 -443446515#3 -443446515#2 -443446515#1 -443446515#0 -75126438#1 -75126438#0 -75117905 75117896 -75117887#2 -75117887#1 -75117887#0 -75117923#5 -75117923#4 -75117923#3 -75117923#2 -75117923#1 -75117923#0 -23881461#5 -23881461#4 -23881461#3 -23881461#2 -23881461#1 -23881461#0 23867718#0 23867718#1 151292468 151292466#0 151292466#1"/>
	</vehicle>
	<vehicle id="120019" depart="625.67" departLane="best" departSpeed="0.00" fromTaz="1120006" toTaz="1120003" type="FIREMEN" >
		<route edges="75117908#5 75117908#6 75117908#0 75117908#1 75117908#2 75117830#0 75117830#1 23907595#2 75117838 106134336 106134328 106134392#0 106134392#1 106134392#2 75117855 75689698#3 75689698#4 75117872 75117863#2 409064668#0 409064668#1 409064668#2 409064668#3 118195341 -443446515#3 -443446515#2 -443446515#1 -443446515#0 -75126438#1 -75126438#0 -75117905 75117896 -75117887#2 -75117887#1 -75117887#0 -75117923#5 -75117923#4 -75117923#3 -75117923#2 -75117923#1 -75117923#0 -23881461#5 -23881461#4 -23881461#3 -23881461#2 -23881461#1 -23881461#0 23867718#0 23867718#1 151292468 151292466#0 151292466#1"/>
	</vehicle>
	<vehicle id="120042" depart="641.55" departLane="best" departSpeed="0.00" fromTaz="1120006" toTaz="1120003" type="FIREMEN" >
		<route edges="75117908#5 75117908#6 75117908#0 75117908#1 75117908#2 75117830#0 75117830#1 23907595#2 75117838 106134336 106134328 106134392#0 106134392#1 106134392#2 75117855 75689698#3 75689698#4 75117872 75117863#2 409064668#0 409064668#1 409064668#2 409064668#3 118195341 -443446515#3 -443446515#2 -443446515#1 -443446515#0 -75126438#1 -75126438#0 -75117905 75117896 -75117887#2 -75117887#1 -75117887#0 -75117923#5 -75117923#4 -75117923#3 -75117923#2 -75117923#1 -75117923#0 -23881461#5 -23881461#4 -23881461#3 -23881461#2 -23881461#1 -23881461#0 23867718#0 23867718#1 151292468 151292466#0 151292466#1"/>
	</vehicle>
	<vehicle id="120049" depart="657.85" departLane="best" departSpeed="0.00" fromTaz="1120006" toTaz="1120003" type="FIREMEN" >
		<route edges="75117908#5 75117908#6 75117908#0 75117908#1 75117908#2 75117830#0 75117830#1 23907595#2 75117838 106134336 106134328 106134392#0 106134392#1 106134392#2 75117855 75689698#3 75689698#4 75117872 75117863#2 409064668#0 409064668#1 409064668#2 409064668#3 118195341 -443446515#3 -443446515#2 -443446515#1 -443446515#0 -75126438#1 -75126438#0 -75117905 75117896 -75117887#2 -75117887#1 -75117887#0 -75117923#5 -75117923#4 -75117923#3 -75117923#2 -75117923#1 -75117923#0 -23881461#5 -23881461#4 -23881461#3 -23881461#2 -23881461#1 -23881461#0 23867718#0 23867718#1 151292468 151292466#0 151292466#1"/>
	</vehicle>
	<vehicle id="120033" depart="672.60" departLane="best" departSpeed="0.00" fromTaz="1120006" toTaz="1120003" type="FIREMEN" >
		<route edges="75117908#5 75117908#6 75117908#0 75117908#1 75117908#2 75117830#0 75117830#1 23907595#2 75117838 106134336 106134328 106134392#0 106134392#1 106134392#2 75117855 75689698#3 75689698#4 75117872 75117863#2 409064668#0 409064668#1 409064668#2 409064668#3 118195341 -443446515#3 -443446515#2 -443446515#1 -443446515#0 -75126438#1 -75126438#0 -75117905 75117896 -75117887#2 -75117887#1 -75117887#0 -75117923#5 -75117923#4 -75117923#3 -75117923#2 -75117923#1 -75117923#0 -23881461#5 -23881461#4 -23881461#3 -23881461#2 -23881461#1 -23881461#0 23867718#0 23867718#1 151292468 151292466#0 151292466#1"/>
	</vehicle>
	<vehicle id="120045" depart="701.67" departLane="best" departSpeed="0.00" fromTaz="1120006" toTaz="1120003" type="FIREMEN" >
		<route edges="75117908#5 75117908#6 75117908#0 75117908#1 75117908#2 75117830#0 75117830#1 23907595#2 75117838 106134336 106134328 106134392#0 106134392#1 106134392#2 75117855 75689698#3 75689698#4 75117872 75117863#2 409064668#0 409064668#1 409064668#2 409064668#3 118195341 -443446515#3 -443446515#2 -443446515#1 -443446515#0 -75126438#1 -75126438#0 -75117905 75117896 -75117887#2 -75117887#1 -75117887#0 -75117923#5 -75117923#4 -75117923#3 -75117923#2 -75117923#1 -75117923#0 -23881461#5 -23881461#4 -23881461#3 -23881461#2 -23881461#1 -23881461#0 23867718#0 23867718#1 151292468 151292466#0 151292466#1"/>
	</vehicle>
	<vehicle id="120016" depart="751.17" departLane="best" departSpeed="0.00" fromTaz="1120006" toTaz="1120003" type="FIREMEN" >
		<route edges="75117908#5 75117908#6 75117908#0 75117908#1 75117908#2 75117830#0 75117830#1 23907595#2 75117838 106134336 106134328 106134392#0 106134392#1 106134392#2 75117855 75689698#3 75689698#4 75117872 75117863#2 409064668#0 409064668#1 409064668#2 409064668#3 118195341 -443446515#3 -443446515#2 -443446515#1 -443446515#0 -75126438#1 -75126438#0 -75117905 75117896 -75117887#2 -75117887#1 -75117887#0 -75117923#5 -75117923#4 -75117923#3 -75117923#2 -75117923#1 -75117923#0 -23881461#5 -23881461#4 -23881461#3 -23881461#2 -23881461#1 -23881461#0 23867718#0 23867718#1 151292468 151292466#0 151292466#1"/>
	</vehicle>
	<vehicle id="120011" depart="762.06" departLane="best" departSpeed="0.00" fromTaz="1120006" toTaz="1120003" type="FIREMEN" >
		<route edges="75117908#5 75117908#6 75117908#0 75117908#1 75117908#2 75117830#0 75117830#1 23907595#2 75117838 106134336 106134328 106134392#0 106134392#1 106134392#2 75117855 75689698#3 75689698#4 75117872 75117863#2 409064668#0 409064668#1 409064668#2 409064668#3 118195341 -443446515#3 -443446515#2 -443446515#1 -443446515#0 -75126438#1 -75126438#0 -75117905 75117896 -75117887#2 -75117887#1 -75117887#0 -75117923#5 -75117923#4 -75117923#3 -75117923#2 -75117923#1 -75117923#0 -23881461#5 -23881461#4 -23881461#3 -23881461#2 -23881461#1 -23881461#0 23867718#0 23867718#1 151292468 151292466#0 151292466#1"/>
	</vehicle>
	<vehicle id="120037" depart="767.24" departLane="best" departSpeed="0.00" fromTaz="1120006" toTaz="1120003" type="FIREMEN" >
		<route edges="75117908#5 75117908#6 75117908#0 75117908#1 75117908#2 75117830#0 75117830#1 23907595#2 75117838 106134336 106134328 106134392#0 106134392#1 106134392#2 75117855 75689698#3 75689698#4 75117872 75117863#2 409064668#0 409064668#1 409064668#2 409064668#3 118195341 -443446515#3 -443446515#2 -443446515#1 -443446515#0 -75126438#1 -75126438#0 -75117905 75117896 -75117887#2 -75117887#1 -75117887#0 -75117923#5 -75117923#4 -75117923#3 -75117923#2 -75117923#1 -75117923#0 -23881461#5 -23881461#4 -23881461#3 -23881461#2 -23881461#1 -23881461#0 23867718#0 23867718#1 151292468 151292466#0 151292466#1"/>
	</vehicle>
	<vehicle id="120036" depart="779.74" departLane="best" departSpeed="0.00" fromTaz="1120006" toTaz="1120003" type="FIREMEN" >
		<route edges="75117908#5 75117908#6 75117908#0 75117908#1 75117908#2 75117830#0 75117830#1 23907595#2 75117838 106134336 106134328 106134392#0 106134392#1 106134392#2 75117855 75689698#3 75689698#4 75117872 75117863#2 409064668#0 409064668#1 409064668#2 409064668#3 118195341 -443446515#3 -443446515#2 -443446515#1 -443446515#0 -75126438#1 -75126438#0 -75117905 75117896 -75117887#2 -75117887#1 -75117887#0 -75117923#5 -75117923#4 -75117923#3 -75117923#2 -75117923#1 -75117923#0 -23881461#5 -23881461#4 -23881461#3 -23881461#2 -23881461#1 -23881461#0 23867718#0 23867718#1 151292468 151292466#0 151292466#1"/>
	</vehicle>
	<vehicle id="120035" depart="782.59" departLane="best" departSpeed="0.00" fromTaz="1120006" toTaz="1120003" type="FIREMEN" >
		<route edges="75117908#5 75117908#6 75117908#0 75117908#1 75117908#2 75117830#0 75117830#1 23907595#2 75117838 106134336 106134328 106134392#0 106134392#1 106134392#2 75117855 75689698#3 75689698#4 75117872 75117863#2 409064668#0 409064668#1 409064668#2 409064668#3 118195341 -443446515#3 -443446515#2 -443446515#1 -443446515#0 -75126438#1 -75126438#0 -75117905 75117896 -75117887#2 -75117887#1 -75117887#0 -75117923#5 -75117923#4 -75117923#3 -75117923#2 -75117923#1 -75117923#0 -23881461#5 -23881461#4 -23881461#3 -23881461#2 -23881461#1 -23881461#0 23867718#0 23867718#1 151292468 151292466#0 151292466#1"/>
	</vehicle>
	<vehicle id="120028" depart="816.11" departLane="best" departSpeed="0.00" fromTaz="1120006" toTaz="1120003" type="FIREMEN" >
		<route edges="75117908#5 75117908#6 75117908#0 75117908#1 75117908#2 75117830#0 75117830#1 23907595#2 75117838 106134336 106134328 106134392#0 106134392#1 106134392#2 75117855 75689698#3 75689698#4 75117872 75117863#2 409064668#0 409064668#1 409064668#2 409064668#3 118195341 -443446515#3 -443446515#2 -443446515#1 -443446515#0 -75126438#1 -75126438#0 -75117905 75117896 -75117887#2 -75117887#1 -75117887#0 -75117923#5 -75117923#4 -75117923#3 -75117923#2 -75117923#1 -75117923#0 -23881461#5 -23881461#4 -23881461#3 -23881461#2 -23881461#1 -23881461#0 23867718#0 23867718#1 151292468 151292466#0 151292466#1"/>
	</vehicle>
	<vehicle id="120040" depart="862.10" departLane="best" departSpeed="0.00" fromTaz="1120006" toTaz="1120003" type="FIREMEN" >
		<route edges="75117908#5 75117908#6 75117908#0 75117908#1 75117908#2 75117830#0 75117830#1 23907595#2 75117838 106134336 106134328 106134392#0 106134392#1 106134392#2 75117855 75689698#3 75689698#4 75117872 75117863#2 409064668#0 409064668#1 409064668#2 409064668#3 118195341 -443446515#3 -443446515#2 -443446515#1 -443446515#0 -75126438#1 -75126438#0 -75117905 75117896 -75117887#2 -75117887#1 -75117887#0 -75117923#5 -75117923#4 -75117923#3 -75117923#2 -75117923#1 -75117923#0 -23881461#5 -23881461#4 -23881461#3 -23881461#2 -23881461#1 -23881461#0 23867718#0 23867718#1 151292468 151292466#0 151292466#1"/>
	</vehicle>
	<vehicle id="120046" depart="905.79" departLane="best" departSpeed="0.00" fromTaz="1120006" toTaz="1120003" type="FIREMEN" >
		<route edges="75117908#5 75117908#6 75117908#0 75117908#1 75117908#2 75117830#0 75117830#1 23907595#2 75117838 106134336 106134328 106134392#0 106134392#1 106134392#2 75117855 75689698#3 75689698#4 75117872 75117863#2 409064668#0 409064668#1 409064668#2 409064668#3 118195341 -443446515#3 -443446515#2 -443446515#1 -443446515#0 -75126438#1 -75126438#0 -75117905 75117896 -75117887#2 -75117887#1 -75117887#0 -75117923#5 -75117923#4 -75117923#3 -75117923#2 -75117923#1 -75117923#0 -23881461#5 -23881461#4 -23881461#3 -23881461#2 -23881461#1 -23881461#0 23867718#0 23867718#1 151292468 151292466#0 151292466#1"/>
	</vehicle>
	<vehicle id="120022" depart="945.65" departLane="best" departSpeed="0.00" fromTaz="1120006" toTaz="1120003" type="FIREMEN" >
		<route edges="75117908#5 75117908#6 75117908#0 75117908#1 75117908#2 75117830#0 75117830#1 23907595#2 75117838 106134336 106134328 106134392#0 106134392#1 106134392#2 75117855 75689698#3 75689698#4 75117872 75117863#2 409064668#0 409064668#1 409064668#2 409064668#3 118195341 -443446515#3 -443446515#2 -443446515#1 -443446515#0 -75126438#1 -75126438#0 -75117905 75117896 -75117887#2 -75117887#1 -75117887#0 -75117923#5 -75117923#4 -75117923#3 -75117923#2 -75117923#1 -75117923#0 -23881461#5 -23881461#4 -23881461#3 -23881461#2 -23881461#1 -23881461#0 23867718#0 23867718#1 151292468 151292466#0 151292466#1"/>
	</vehicle>
	<vehicle id="120021" depart="952.32" departLane="best" departSpeed="0.00" fromTaz="1120006" toTaz="1120003" type="FIREMEN" >
		<route edges="75117908#5 75117908#6 75117908#0 75117908#1 75117908#2 75117830#0 75117830#1 23907595#2 75117838 106134336 106134328 106134392#0 106134392#1 106134392#2 75117855 75689698#3 75689698#4 75117872 75117863#2 409064668#0 409064668#1 409064668#2 409064668#3 118195341 -443446515#3 -443446515#2 -443446515#1 -443446515#0 -75126438#1 -75126438#0 -75117905 75117896 -75117887#2 -75117887#1 -75117887#0 -75117923#5 -75117923#4 -75117923#3 -75117923#2 -75117923#1 -75117923#0 -23881461#5 -23881461#4 -23881461#3 -23881461#2 -23881461#1 -23881461#0 23867718#0 23867718#1 151292468 151292466#0 151292466#1"/>
	</vehicle>
	<vehicle id="12000" depart="990.93" departLane="best" departSpeed="0.00" fromTaz="1120006" toTaz="1120003" type="FIREMEN" >
		<route edges="75117908#5 75117908#6 75117908#0 75117908#1 75117908#2 75117830#0 75117830#1 23907595#2 75117838 106134336 106134328 106134392#0 106134392#1 106134392#2 75117855 75689698#3 75689698#4 75117872 75117863#2 409064668#0 409064668#1 409064668#2 409064668#3 118195341 -443446515#3 -443446515#2 -443446515#1 -443446515#0 -75126438#1 -75126438#0 -75117905 75117896 -75117887#2 -75117887#1 -75117887#0 -75117923#5 -75117923#4 -75117923#3 -75117923#2 -75117923#1 -75117923#0 -23881461#5 -23881461#4 -23881461#3 -23881461#2 -23881461#1 -23881461#0 23867718#0 23867718#1 151292468 151292466#0 151292466#1"/>
	</vehicle>
	<vehicle id="120005" depart="1010.45" departLane="best" departSpeed="0.00" fromTaz="1120006" toTaz="1120003" type="FIREMEN" >
		<route edges="75117908#5 75117908#6 75117908#0 75117908#1 75117908#2 75117830#0 75117830#1 23907595#2 75117838 106134336 106134328 106134392#0 106134392#1 106134392#2 75117855 75689698#3 75689698#4 75117872 75117863#2 409064668#0 409064668#1 409064668#2 409064668#3 118195341 -443446515#3 -443446515#2 -443446515#1 -443446515#0 -75126438#1 -75126438#0 -75117905 75117896 -75117887#2 -75117887#1 -75117887#0 -75117923#5 -75117923#4 -75117923#3 -75117923#2 -75117923#1 -75117923#0 -23881461#5 -23881461#4 -23881461#3 -23881461#2 -23881461#1 -23881461#0 23867718#0 23867718#1 151292468 151292466#0 151292466#1"/>
	</vehicle>
	<vehicle id="120041" depart="1010.68" departLane="best" departSpeed="0.00" fromTaz="1120006" toTaz="1120003" type="FIREMEN" >
		<route edges="75117908#5 75117908#6 75117908#0 75117908#1 75117908#2 75117830#0 75117830#1 23907595#2 75117838 106134336 106134328 106134392#0 106134392#1 106134392#2 75117855 75689698#3 75689698#4 75117872 75117863#2 409064668#0 409064668#1 409064668#2 409064668#3 118195341 -443446515#3 -443446515#2 -443446515#1 -443446515#0 -75126438#1 -75126438#0 -75117905 75117896 -75117887#2 -75117887#1 -75117887#0 -75117923#5 -75117923#4 -75117923#3 -75117923#2 -75117923#1 -75117923#0 -23881461#5 -23881461#4 -23881461#3 -23881461#2 -23881461#1 -23881461#0 23867718#0 23867718#1 151292468 151292466#0 151292466#1"/>
	</vehicle>
	<vehicle id="120032" depart="1023.68" departLane="best" departSpeed="0.00" fromTaz="1120006" toTaz="1120003" type="FIREMEN" >
		<route edges="75117908#5 75117908#6 75117908#0 75117908#1 75117908#2 75117830#0 75117830#1 23907595#2 75117838 106134336 106134328 106134392#0 106134392#1 106134392#2 75117855 75689698#3 75689698#4 75117872 75117863#2 409064668#0 409064668#1 409064668#2 409064668#3 118195341 -443446515#3 -443446515#2 -443446515#1 -443446515#0 -75126438#1 -75126438#0 -75117905 75117896 -75117887#2 -75117887#1 -75117887#0 -75117923#5 -75117923#4 -75117923#3 -75117923#2 -75117923#1 -75117923#0 -23881461#5 -23881461#4 -23881461#3 -23881461#2 -23881461#1 -23881461#0 23867718#0 23867718#1 151292468 151292466#0 151292466#1"/>
	</vehicle>
	<vehicle id="120001" depart="1076.94" departLane="best" departSpeed="0.00" fromTaz="1120006" toTaz="1120003" type="FIREMEN" >
		<route edges="75117908#5 75117908#6 75117908#0 75117908#1 75117908#2 75117830#0 75117830#1 23907595#2 75117838 106134336 106134328 106134392#0 106134392#1 106134392#2 75117855 75689698#3 75689698#4 75117872 75117863#2 409064668#0 409064668#1 409064668#2 409064668#3 118195341 -443446515#3 -443446515#2 -443446515#1 -443446515#0 -75126438#1 -75126438#0 -75117905 75117896 -75117887#2 -75117887#1 -75117887#0 -75117923#5 -75117923#4 -75117923#3 -75117923#2 -75117923#1 -75117923#0 -23881461#5 -23881461#4 -23881461#3 -23881461#2 -23881461#1 -23881461#0 23867718#0 23867718#1 151292468 151292466#0 151292466#1"/>
	</vehicle>
	<vehicle id="120025" depart="1142.30" departLane="best" departSpeed="0.00" fromTaz="1120006" toTaz="1120003" type="FIREMEN" >
		<route edges="75117908#5 75117908#6 75117908#0 75117908#1 75117908#2 75117830#0 75117830#1 23907595#2 75117838 106134336 106134328 106134392#0 106134392#1 106134392#2 75117855 75689698#3 75689698#4 75117872 75117863#2 409064668#0 409064668#1 409064668#2 409064668#3 118195341 -443446515#3 -443446515#2 -443446515#1 -443446515#0 -75126438#1 -75126438#0 -75117905 75117896 -75117887#2 -75117887#1 -75117887#0 -75117923#5 -75117923#4 -75117923#3 -75117923#2 -75117923#1 -75117923#0 -23881461#5 -23881461#4 -23881461#3 -23881461#2 -23881461#1 -23881461#0 23867718#0 23867718#1 151292468 151292466#0 151292466#1"/>
	</vehicle>
	<vehicle id="120003" depart="1254.29" departLane="best" departSpeed="0.00" fromTaz="1120006" toTaz="1120003" type="FIREMEN" >
		<route edges="75117908#5 75117908#6 75117908#0 75117908#1 75117908#2 75117830#0 75117830#1 23907595#2 75117838 106134336 106134328 106134392#0 106134392#1 106134392#2 75117855 75689698#3 75689698#4 75117872 75117863#2 409064668#0 409064668#1 409064668#2 409064668#3 118195341 -443446515#3 -443446515#2 -443446515#1 -443446515#0 -75126438#1 -75126438#0 -75117905 75117896 -75117887#2 -75117887#1 -75117887#0 -75117923#5 -75117923#4 -75117923#3 -75117923#2 -75117923#1 -75117923#0 -23881461#5 -23881461#4 -23881461#3 -23881461#2 -23881461#1 -23881461#0 23867718#0 23867718#1 151292468 151292466#0 151292466#1"/>
	</vehicle>
	<vehicle id="120015" depart="1266.67" departLane="best" departSpeed="0.00" fromTaz="1120006" toTaz="1120003" type="FIREMEN" >
		<route edges="75117908#5 75117908#6 75117908#0 75117908#1 75117908#2 75117830#0 75117830#1 23907595#2 75117838 106134336 106134328 106134392#0 106134392#1 106134392#2 75117855 75689698#3 75689698#4 75117872 75117863#2 409064668#0 409064668#1 409064668#2 409064668#3 118195341 -443446515#3 -443446515#2 -443446515#1 -443446515#0 -75126438#1 -75126438#0 -75117905 75117896 -75117887#2 -75117887#1 -75117887#0 -75117923#5 -75117923#4 -75117923#3 -75117923#2 -75117923#1 -75117923#0 -23881461#5 -23881461#4 -23881461#3 -23881461#2 -23881461#1 -23881461#0 23867718#0 23867718#1 151292468 151292466#0 151292466#1"/>
	</vehicle>
	<vehicle id="120017" depart="1324.95" departLane="best" departSpeed="0.00" fromTaz="1120006" toTaz="1120003" type="FIREMEN" >
		<route edges="75117908#5 75117908#6 75117908#0 75117908#1 75117908#2 75117830#0 75117830#1 23907595#2 75117838 106134336 106134328 106134392#0 106134392#1 106134392#2 75117855 75689698#3 75689698#4 75117872 75117863#2 409064668#0 409064668#1 409064668#2 409064668#3 118195341 -443446515#3 -443446515#2 -443446515#1 -443446515#0 -75126438#1 -75126438#0 -75117905 75117896 -75117887#2 -75117887#1 -75117887#0 -75117923#5 -75117923#4 -75117923#3 -75117923#2 -75117923#1 -75117923#0 -23881461#5 -23881461#4 -23881461#3 -23881461#2 -23881461#1 -23881461#0 23867718#0 23867718#1 151292468 151292466#0 151292466#1"/>
	</vehicle>
	<vehicle id="120047" depart="1337.42" departLane="best" departSpeed="0.00" fromTaz="1120006" toTaz="1120003" type="FIREMEN" >
		<route edges="75117908#5 75117908#6 75117908#0 75117908#1 75117908#2 75117830#0 75117830#1 23907595#2 75117838 106134336 106134328 106134392#0 106134392#1 106134392#2 75117855 75689698#3 75689698#4 75117872 75117863#2 409064668#0 409064668#1 409064668#2 409064668#3 118195341 -443446515#3 -443446515#2 -443446515#1 -443446515#0 -75126438#1 -75126438#0 -75117905 75117896 -75117887#2 -75117887#1 -75117887#0 -75117923#5 -75117923#4 -75117923#3 -75117923#2 -75117923#1 -75117923#0 -23881461#5 -23881461#4 -23881461#3 -23881461#2 -23881461#1 -23881461#0 23867718#0 23867718#1 151292468 151292466#0 151292466#1"/>
	</vehicle>
	<vehicle id="120007" depart="1355.38" departLane="best" departSpeed="0.00" fromTaz="1120006" toTaz="1120003" type="FIREMEN" >
		<route edges="75117908#5 75117908#6 75117908#0 75117908#1 75117908#2 75117830#0 75117830#1 23907595#2 75117838 106134336 106134328 106134392#0 106134392#1 106134392#2 75117855 75689698#3 75689698#4 75117872 75117863#2 409064668#0 409064668#1 409064668#2 409064668#3 118195341 -443446515#3 -443446515#2 -443446515#1 -443446515#0 -75126438#1 -75126438#0 -75117905 75117896 -75117887#2 -75117887#1 -75117887#0 -75117923#5 -75117923#4 -75117923#3 -75117923#2 -75117923#1 -75117923#0 -23881461#5 -23881461#4 -23881461#3 -23881461#2 -23881461#1 -23881461#0 23867718#0 23867718#1 151292468 151292466#0 151292466#1"/>
	</vehicle>
	<vehicle id="120026" depart="1385.27" departLane="best" departSpeed="0.00" fromTaz="1120006" toTaz="1120003" type="FIREMEN" >
		<route edges="75117908#5 75117908#6 75117908#0 75117908#1 75117908#2 75117830#0 75117830#1 23907595#2 75117838 106134336 106134328 106134392#0 106134392#1 106134392#2 75117855 75689698#3 75689698#4 75117872 75117863#2 409064668#0 409064668#1 409064668#2 409064668#3 118195341 -443446515#3 -443446515#2 -443446515#1 -443446515#0 -75126438#1 -75126438#0 -75117905 75117896 -75117887#2 -75117887#1 -75117887#0 -75117923#5 -75117923#4 -75117923#3 -75117923#2 -75117923#1 -75117923#0 -23881461#5 -23881461#4 -23881461#3 -23881461#2 -23881461#1 -23881461#0 23867718#0 23867718#1 151292468 151292466#0 151292466#1"/>
	</vehicle>
	<vehicle id="120030" depart="1504.21" departLane="best" departSpeed="0.00" fromTaz="1120006" toTaz="1120003" type="FIREMEN" >
		<route edges="75117908#5 75117908#6 75117908#0 75117908#1 75117908#2 75117830#0 75117830#1 23907595#2 75117838 106134336 106134328 106134392#0 106134392#1 106134392#2 75117855 75689698#3 75689698#4 75117872 75117863#2 409064668#0 409064668#1 409064668#2 409064668#3 118195341 -443446515#3 -443446515#2 -443446515#1 -443446515#0 -75126438#1 -75126438#0 -75117905 75117896 -75117887#2 -75117887#1 -75117887#0 -75117923#5 -75117923#4 -75117923#3 -75117923#2 -75117923#1 -75117923#0 -23881461#5 -23881461#4 -23881461#3 -23881461#2 -23881461#1 -23881461#0 23867718#0 23867718#1 151292468 151292466#0 151292466#1"/>
	</vehicle>
	<vehicle id="120061" depart="1506.36" departLane="best" departSpeed="0.00" fromTaz="1120003" toTaz="1120006" type="FIREMEN" >
		<route edges="151292466#1 151292466#2 23881461#0 23881461#1 23881461#2 23881461#3 23881461#4 23881461#5 75117923#0 75117923#1 75117923#2 75117923#3 75117923#4 75117923#5 75117887#0 75117887#1 75117887#2 -75117896 75117905 75126438#0 75126438#1 443446515#0 443446515#1 443446515#2 443446515#3 118195332 409064673 75117863#0 118195344#0 118195344#1 118195344#2 75689698#6 75689698#7 75689698#0 75689698#1 75117890 -106134392#2 -106134392#1 -106134392#0 -106134328 -106134336 106134397#0 106134397#1 23907595#4 23907595#5 23907595#6 23907595#7 23907595#8 23907595#0 41222512#0 41222512#1 75117908#4 75117908#5"/>
	</vehicle>
	<vehicle id="120067" depart="1513.56" departLane="best" departSpeed="0.00" fromTaz="1120003" toTaz="1120006" type="FIREMEN" >
		<route edges="151292466#1 151292466#2 23881461#0 23881461#1 23881461#2 23881461#3 23881461#4 23881461#5 75117923#0 75117923#1 75117923#2 75117923#3 75117923#4 75117923#5 75117887#0 75117887#1 75117887#2 -75117896 75117905 75126438#0 75126438#1 443446515#0 443446515#1 443446515#2 443446515#3 118195332 409064673 75117863#0 118195344#0 118195344#1 118195344#2 75689698#6 75689698#7 75689698#0 75689698#1 75117890 -106134392#2 -106134392#1 -106134392#0 -106134328 -106134336 106134397#0 106134397#1 23907595#4 23907595#5 23907595#6 23907595#7 23907595#8 23907595#0 41222512#0 41222512#1 75117908#4 75117908#5"/>
	</vehicle>
	<vehicle id="120058" depart="1527.48" departLane="best" departSpeed="0.00" fromTaz="1120003" toTaz="1120006" type="FIREMEN" >
		<route edges="151292466#1 151292466#2 23881461#0 23881461#1 23881461#2 23881461#3 23881461#4 23881461#5 75117923#0 75117923#1 75117923#2 75117923#3 75117923#4 75117923#5 75117887#0 75117887#1 75117887#2 -75117896 75117905 75126438#0 75126438#1 443446515#0 443446515#1 443446515#2 443446515#3 118195332 409064673 75117863#0 118195344#0 118195344#1 118195344#2 75689698#6 75689698#7 75689698#0 75689698#1 75117890 -106134392#2 -106134392#1 -106134392#0 -106134328 -106134336 106134397#0 106134397#1 23907595#4 23907595#5 23907595#6 23907595#7 23907595#8 23907595#0 41222512#0 41222512#1 75117908#4 75117908#5"/>
	</vehicle>
	<vehicle id="120039" depart="1527.91" departLane="best" departSpeed="0.00" fromTaz="1120006" toTaz="1120003" type="FIREMEN" >
		<route edges="75117908#5 75117908#6 75117908#0 75117908#1 75117908#2 75117830#0 75117830#1 23907595#2 75117838 106134336 106134328 106134392#0 106134392#1 106134392#2 75117855 75689698#3 75689698#4 75117872 75117863#2 409064668#0 409064668#1 409064668#2 409064668#3 118195341 -443446515#3 -443446515#2 -443446515#1 -443446515#0 -75126438#1 -75126438#0 -75117905 75117896 -75117887#2 -75117887#1 -75117887#0 -75117923#5 -75117923#4 -75117923#3 -75117923#2 -75117923#1 -75117923#0 -23881461#5 -23881461#4 -23881461#3 -23881461#2 -23881461#1 -23881461#0 23867718#0 23867718#1 151292468 151292466#0 151292466#1"/>
	</vehicle>
	<vehicle id="120082" depart="1530.86" departLane="best" departSpeed="0.00" fromTaz="1120003" toTaz="1120006" type="FIREMEN" >
		<route edges="151292466#1 151292466#2 23881461#0 23881461#1 23881461#2 23881461#3 23881461#4 23881461#5 75117923#0 75117923#1 75117923#2 75117923#3 75117923#4 75117923#5 75117887#0 75117887#1 75117887#2 -75117896 75117905 75126438#0 75126438#1 443446515#0 443446515#1 443446515#2 443446515#3 118195332 409064673 75117863#0 118195344#0 118195344#1 118195344#2 75689698#6 75689698#7 75689698#0 75689698#1 75117890 -106134392#2 -106134392#1 -106134392#0 -106134328 -106134336 106134397#0 106134397#1 23907595#4 23907595#5 23907595#6 23907595#7 23907595#8 23907595#0 41222512#0 41222512#1 75117908#4 75117908#5"/>
	</vehicle>
	<vehicle id="120075" depart="1542.16" departLane="best" departSpeed="0.00" fromTaz="1120003" toTaz="1120006" type="FIREMEN" >
		<route edges="151292466#1 151292466#2 23881461#0 23881461#1 23881461#2 23881461#3 23881461#4 23881461#5 75117923#0 75117923#1 75117923#2 75117923#3 75117923#4 75117923#5 75117887#0 75117887#1 75117887#2 -75117896 75117905 75126438#0 75126438#1 443446515#0 443446515#1 443446515#2 443446515#3 118195332 409064673 75117863#0 118195344#0 118195344#1 118195344#2 75689698#6 75689698#7 75689698#0 75689698#1 75117890 -106134392#2 -106134392#1 -106134392#0 -106134328 -106134336 106134397#0 106134397#1 23907595#4 23907595#5 23907595#6 23907595#7 23907595#8 23907595#0 41222512#0 41222512#1 75117908#4 75117908#5"/>
	</vehicle>
	<vehicle id="120081" depart="1567.68" departLane="best" departSpeed="0.00" fromTaz="1120003" toTaz="1120006" type="FIREMEN" >
		<route edges="151292466#1 151292466#2 23881461#0 23881461#1 23881461#2 23881461#3 23881461#4 23881461#5 75117923#0 75117923#1 75117923#2 75117923#3 75117923#4 75117923#5 75117887#0 75117887#1 75117887#2 -75117896 75117905 75126438#0 75126438#1 443446515#0 443446515#1 443446515#2 443446515#3 118195332 409064673 75117863#0 118195344#0 118195344#1 118195344#2 75689698#6 75689698#7 75689698#0 75689698#1 75117890 -106134392#2 -106134392#1 -106134392#0 -106134328 -106134336 106134397#0 106134397#1 23907595#4 23907595#5 23907595#6 23907595#7 23907595#8 23907595#0 41222512#0 41222512#1 75117908#4 75117908#5"/>
	</vehicle>
	<vehicle id="120065" depart="1580.26" departLane="best" departSpeed="0.00" fromTaz="1120003" toTaz="1120006" type="FIREMEN" >
		<route edges="151292466#1 151292466#2 23881461#0 23881461#1 23881461#2 23881461#3 23881461#4 23881461#5 75117923#0 75117923#1 75117923#2 75117923#3 75117923#4 75117923#5 75117887#0 75117887#1 75117887#2 -75117896 75117905 75126438#0 75126438#1 443446515#0 443446515#1 443446515#2 443446515#3 118195332 409064673 75117863#0 118195344#0 118195344#1 118195344#2 75689698#6 75689698#7 75689698#0 75689698#1 75117890 -106134392#2 -106134392#1 -106134392#0 -106134328 -106134336 106134397#0 106134397#1 23907595#4 23907595#5 23907595#6 23907595#7 23907595#8 23907595#0 41222512#0 41222512#1 75117908#4 75117908#5"/>
	</vehicle>
	<vehicle id="120053" depart="1582.19" departLane="best" departSpeed="0.00" fromTaz="1120003" toTaz="1120006" type="FIREMEN" >