<?xml version="1.0" encoding="UTF-8"?>

<!-- generated on Sun May  5 22:52:59 2019 by SUMO duarouter Version 0.27.1
<?xml version="1.0" encoding="UTF-8"?>

<configuration xmlns:xsi="http://www.w3.org/2001/XMLSchema-instance" xsi:noNamespaceSchemaLocation="http://sumo.dlr.de/xsd/duarouterConfiguration.xsd">

    <input>
        <net-file value="alcalahenares_M_nomaps_tele60_timeALL_fulltraffic.net.xml"/>
        <trip-files value="alcalahenares_M_nomaps_tele60_timeALL_fulltraffic.trip.xml"/>
    </input>

    <output>
        <output-file value="alcalahenares_M_nomaps_tele60_timeALL_fulltraffic.routes.xml"/>
    </output>

    <processing>
        <ignore-errors value="true"/>
        <max-alternatives value="10"/>
        <remove-loops value="true"/>
        <repair value="true"/>
        <repair.from value="true"/>
        <repair.to value="true"/>
    </processing>

    <time>
        <begin value="0"/>
        <end value="3600"/>
    </time>

</configuration>
-->

<routes xmlns:xsi="http://www.w3.org/2001/XMLSchema-instance" xsi:noNamespaceSchemaLocation="http://sumo.dlr.de/xsd/routes_file.xsd">
	<vType id="motorcycle" vClass="motorcycle" />
	<vType id="car" vClass="passenger" />
	<vType id="taxi" vClass="passenger" />
	<vType id="bus" vClass="bus" />
	<vehicle id="2541" depart="0.12" departLane="best" departSpeed="0.00" fromTaz="2" toTaz="1000" type="bus" >
		<route edges="355558165#0 355558165#1 38754458 23859149 419948975#0 75810141 118201167#1 218015774#3 218015774#4 22890594 218015773#0 218015773#1 218015773#2 218015775 218015774#0 218015774#1 22890618#0 22890618#1 118201174#4 118201174#5 118201159 22890621#0 22890621#1 91341788 151082200#5 151082200#6 151082200#7 23904830 67079133#0 67079133#1 32933447#0 32933447#1 32933447#2 -32933464#4 -123483740#0"/>
	</vehicle>
	<vehicle id="2034" depart="0.19" departLane="best" departSpeed="0.00" fromTaz="1000" toTaz="5" type="car" >
		<route edges="256519084#1 -256585719#5 -256585719#4 -256585719#3 -256585719#2 -256585719#1 -256585719#0 156663595 24038170#5 24038170#6 24038170#7 24038170#0 24038170#1 23904766#0 23904766#1 23904766#2 23904766#3 23904766#4 357265141 227354784#0 227354784#1 227354784#2 227354784#3 227354784#4 227354784#5 227354784#6 395906342#0 395906342#1 395906342#2 395906342#3 32900470#1 32900470#2 32900470#3 32900469 409578705#0 409578705#1 409578705#2 409578705#3 409578705#4 409578705#5 408891184#0 408891184#1 75117864#0 75117864#1 75117864#2 304149611#0 304149611#1 304149611#2 304149611#3 304149611#4 304149611#5 304149611#6 151292465#0 151292465#1 151292465#2 151292465#3 19916359#3 19916359#4 19916359#5 77806025#0 77806025#1 77806025#2 77806025#3 77806025#4 77806025#5 77806025#6 77806025#7 77806025#8 77806026#6 77806026#0 77806026#1 23904729#0 23904729#1 23904701#6 23904700 23957428#0 23957428#1 23957428#2 126777129#0 126777129#1 126777129#2"/>
	</vehicle>
	<vehicle id="2758" depart="0.38" departLane="best" departSpeed="0.00" fromTaz="3" toTaz="2" type="car" >
		<route edges="4616750#0 66732651 4616748#6 4616749 4616730#4 4616730#5 4616730#6 4616736 409768907 4616745 4616731#0 4616731#1 4616725#2 4616725#3 4616725#4 4616725#5 4616725#6 4616725#7 4616725#0 4616735#0 22913304 318886585#3 330982381 330982391 330982380 330982399#0 330982399#1 330982399#2 330982399#3 329462043 329462033 329462040 329462046 328644489 328644487 179175834 328644849 328644846 328644851 77697382 24545612 24545613#0 24545613#1 38754462 23859154#0 23859154#1"/>
	</vehicle>
	<vehicle id="2049" depart="0.75" departLane="best" departSpeed="0.00" fromTaz="1000" toTaz="5" type="taxi" >
		<route edges="23957371#3 23957370#0 23957370#1 23957370#2 23957370#3 23957370#4 23907578#7 23907578#8 23907578#0 76508312#0 76508312#1 76508312#2 409073642#0 409073642#1 409073644 23907575#0 75117821 75117834 23971663 75117848 75123299 75123352 69708147#0 69708147#1 409076845 75117923#0 75117923#1 75117923#2 75117923#3 75117923#4 75117923#5 75117926#0 75117926#1 75117926#2 75117926#3 75117926#4 75117926#5 409341278 23867507 23867499#3 23867499#4 23867499#5 23867498 91348386#0 23881407#0 23881407#1 252184788#0 252184788#1 252184788#2 23858696#3 23858696#4 23858696#5 23858696#6 32403419#0 32403419#1 32403419#2 32403419#3 32403419#4 32403419#5 32403209 -61312529 23905117#0 23905117#1 23905117#2 23905117#3 23904423#1 23904423#2 23904423#3 -36248187#1 -36248187#0 61312542#0 61312542#1 256287032#0 256287032#1 252184790#1 252184791 -409041501#7 -409041501#6 -409041501#5 -409041501#4 -409041501#3 -409041501#2 -409041501#1 -409041501#0 -408922028#5 -408922028#4 -408922028#3 -408922028#2 -408922028#1 -408922028#0 -408922032#1 -408922032#0 -23907675#6 -23907675#5 -23907675#4 -23907675#3 -23907675#2 -23907675#1 -23907675#0 -225743996#3 -225743996#2 -225743996#1 -225743996#0 -23907673#7 -23907673#6 -23907673#5 -23907673#4 -23907673#3 -23907673#2 -23907673#1 -23907673#0 23904729#1 23904701#6 23904700 23957428#0 23957428#1 23957428#2 126777129#0 126777129#1 126777129#2"/>
	</vehicle>
	<vehicle id="176" depart="0.81" departLane="best" departSpeed="0.00" fromTaz="1" toTaz="1000" type="car" >
		<route edges="35576028 410102852#0 76043570 330982391 330982380 75123277 22933157#5 22933157#6 22933157#7 23907593 75689640 218162425#0 218162425#1 218162425#2 75117881#0 75117881#1 75117846 106134380#0 106134380#1 23907595#8 23907595#0 23907595#1 23907595#2 23907595#3 23907595#4 75117861#0 75117861#1 75117870#2 75126568 218162389#0 218162389#1 121986464 118195326#5 118195326#0 118195326#1 118195339 -118195325#1 -118195325#0 118195333 27540909#4 27540909#5 27540909#6 27540909#0"/>
	</vehicle>
	<vehicle id="2499" depart="0.90" departLane="best" departSpeed="0.00" fromTaz="2" toTaz="1000" type="bus" >
		<route edges="355558165#0 183334658 179175827#2 179175827#3 179175827#4 179175827#5 179175827#6 179175881 313495200 183372461 -405649771 -183334630 180619324#4 180619324#0 179175825 75689937#0 75689937#1 23907619 382134171#0 382134171#1 123484005#0 123484005#1 123483825#1 123483825#2 221092677#1 29289637 29289692#0 29289692#1 29289692#2 29289692#3 29289692#4 29289692#5 29289692#6 29289692#7 29289692#8 29289692#9 29289692#10 29289692#11 29289692#12 29289692#13 29289692#14 29289692#15 29289692#16 29289692#17 29289692#18 29289692#19 29289692#20 29289692#21 29289692#22 29289692#23 29289692#24 29289692#25 29289692#26 29289692#27 29289682#1 29289682#2 29289682#3 29288133#2 29288133#3 29288133#4 29288133#5 29288133#0 35582262 29289581#1 29289581#2 29289581#3 409045422#0 409045422#1 409045422#2 409045422#3 409045422#4 409045422#5 409045422#6 409045422#7 409045422#8 409045422#9"/>
	</vehicle>
	<vehicle id="618" depart="0.90" departLane="best" departSpeed="0.00" fromTaz="1000" toTaz="1000" type="car" >
		<route edges="197934839#7 197934839#8 28343711 300511265#0 300511265#1 300511265#2 300511265#3 23907675#4 23907675#5 23907675#6 408922032#0 408922032#1 408922028#0 408922028#1 408922028#2 408922028#3 408922028#4 408922028#5 409041501#0 409041501#1 409041501#2 409041501#3 409041501#4 409041501#5 409041501#6 409041501#7 252184792 -422507344#6 -422507344#5 -422507344#4 -422507344#3 -422507344#2 -422507344#1 -422507344#0 -32402199#5 -32402199#4 -32402199#3 -32402199#2 -32402199#1 -32402199#0 32402088 28343782#6 28343782#7 28343782#0 28343782#1 28343782#2 23905091#0 -191930236#1 -191930236#0 -191926973#1 -191926973#0 23904435#0 23904435#1 28343728#3 28343728#4 -23870217#1 -23870217#0 -408875678#1 -408875678#0 -23869711#2 -23869711#1 -23869711#0 32907265#2 32907265#3 32907265#4 32907265#5 32907265#0 28355562 -28355559#3 -28355559#2 -28355559#1 -28355559#0 409139013 32900481#0 32900481#1 28355555 -28355552#3 -28355552#2 -28355552#1 -28355552#0"/>
	</vehicle>
	<vehicle id="4220" depart="0.91" departLane="best" departSpeed="0.00" fromTaz="6" toTaz="2" type="taxi" >
		<route edges="345228944#0 345228944#1 345228944#2 345228944#3 406068842 406068843 32907218 19917361 19917367 19916362#1 19916362#2 19916362#3 23141213 23904701#4 77806028#0 77806028#1 77806028#2 77806028#3 77806026#3 77806026#4 77806016#0 77806016#1 77806016#2 77806016#3 77806016#4 19916359#7 19916359#0 19916359#1 151292464#0 151292464#1 151292464#2 151292464#3 -304149611#6 -304149611#5 -304149611#4 -304149611#3 -304149611#2 -304149611#1 -304149611#0 304149612#0 304149612#1 304149612#2 304149612#3 409579349 174188604#0 174188604#1 174188604#2 174188604#3 32900470#5 395906341#0 395906341#1 -227354784#6 -227354784#5 -227354784#4 -227354784#3 -227354784#2 -227354784#1 -158349118 -158349113#1 -158349113#0 357265153#2 357265153#3 357265153#4 32900481#0 32900481#1 32900481#2 32900481#3 75117911#0 75117911#1 75117911#2 75117911#3 75117911#4 75117911#5 75117911#6 75117911#7 75117911#8 75117911#9 75117911#10 75117911#11 75117911#12 23907635#1 23907635#2 23907635#3 151292453#0 151292453#1 151292453#2 151292453#3 151292453#4 151292453#5 151292453#6 151292453#7 151292453#8 151292453#9 151292453#10 151292453#11 23907628#3 23907628#4 -75689947#6 -75689947#5 -75689947#4 -75689947#3 -75689947#2 -75689947#1 -75689947#0 -382134172#2 -382134172#1 -382134172#0 382134171#0 382134171#1 382134171#2 180619324#2 180619324#3 183334630 314898332 23859154#1"/>
	</vehicle>
	<vehicle id="142" depart="1.15" departLane="best" departSpeed="0.00" fromTaz="1" toTaz="1000" type="motorcycle" >
		<route edges="35576028 410102852#0 76043570 330982391 330982380 75123277 22933157#5 22933157#6 22933157#7 23907593 75689640 218162425#0 218162425#1 218162425#2 75117881#0 75117881#1 75117846 106134380#0 106134380#1 23907595#8 23907595#0 23907595#1 23907595#2 75117838 106134336 106134328 106134392#0 106134392#1 106134392#2 75117855 75689698#3 75689698#4 75117872 75117863#2 409064668#0 409064668#1 409064668#2 409064668#3 118195341 -443446515#3 -443446515#2 -443446515#1 -443446515#0 -75126438#1 -75126438#0 -75117905 75117896 -75117887#2 -75117887#1 -75117887#0 -75117923#5 -75117923#4 -75117923#3 -75117923#2 -75117923#1 -75117923#0 -409076845 -75117884#4 -75117884#3 -75117884#2 -75117884#1 -75117884#0 -75810137"/>
	</vehicle>
	<vehicle id="2295" depart="1.24" departLane="best" departSpeed="0.00" fromTaz="1000" toTaz="8" type="taxi" >
		<route edges="-75689947#0 -382134172#2 -382134172#1 -382134172#0 382134171#0 382134171#1 382134171#2 180619324#2 180619324#3 183334630 405649771 -183372461 -313495200 313495203 179175827#1 179175827#2 179175827#3 179175827#4 179175827#5 179175858 179175854 179175836 179175852 419948975#0 75810141 118201167#1 218015774#3 218015774#4 22890594 218015773#0 26141615 -352790374#1 -352790374#0 -26141622#1 -26141622#0 26141633 26141576#4 26141576#5 26141576#6 26141576#7 26141576#8 26141598 26141600"/>
	</vehicle>
	<vehicle id="853" depart="1.28" departLane="best" departSpeed="0.00" fromTaz="1000" toTaz="1000" type="car" >
		<route edges="-424607717 424607755#1 424607756#0 424607756#1 429375376 28343724#0 28343724#1 28343724#2 28343724#3 28343724#4 28343724#5 28343724#6 28343724#7 28343724#8 -75117822#0 75117826#1 75117826#2 75117826#3 75117826#4 75117902#0 75117902#1 23867499#5 23867499#6 23867499#0 23867499#1 23867509 -409341278 -75117926#5 -75117926#4 -75117926#3 -75117926#2 -75117926#1 -75117926#0 -75117923#5 -75117923#4 -75117923#3 -75117923#2 -75117923#1 -75117923#0 -409076845 -75117884#4 -75117884#3 -75117884#2 -75117884#1 -75117884#0 -75810137 -75117893 -75117873 -44785747 23971650 23971646#0 23971646#1 23971646#2 151082174 -67091822#3 -67091822#2 -67091822#1 -67091822#0 67091823 151082191#4 151082191#5 67091820#0 67091820#1 -67079133#4 -67079133#3 -67079133#2 -67079133#1 -67079133#0 67079135 151082200#0 151082200#1 23971490 91341791 409262275 23971627 23971628#0 23971628#1 47251102 151082202#0 151082202#1 23971549 23971534#2 151082228 151082238#0 151082238#1 151082238#2 32906936#0 32906936#1 32906936#2 32906936#3 32906936#4 151082237#0 32907729 150932487#0 150932487#1 150932487#2 -35968160#1 -35968160#0"/>
	</vehicle>
	<vehicle id="4069" depart="1.44" departLane="best" departSpeed="0.00" fromTaz="6" toTaz="1000" type="car" >
		<route edges="345228944#0 345228944#1 345228944#2 345228944#3 406068842 406068843 32907218 19917361 19917367 19916362#1 19916362#2 19916362#3 23141213 23904701#4 77806028#0 77806028#1 77806028#2 77806028#3 77806026#3 77806026#4 77806016#0 77806016#1 77806016#2 77806016#3 77806016#4 19916359#7 19916359#0 19916359#1 151292464#0 151292464#1 151292464#2 151292464#3 -304149611#6 -304149611#5 -304149611#4 -304149611#3 -304149611#2 -304149611#1 -304149611#0 304149612#0 304149612#1 304149612#2 304149612#3 409579349 174188604#0 174188604#1 174188604#2 174188604#3 32900470#5 395906341#0 395906341#1 -227354784#6 -227354784#5 -227354784#4 -227354784#3 -227354784#2 -227354784#1 -227354784#0 -357265141 23904796#0 23904796#1 24038170#3 24038165#0 24038165#1 256585719#0 256585719#1 256585719#2 256585719#3 24038173#0 24038173#1 24038173#2 24038173#3 256519080#8 256519080#0 256519080#1 256519082#0 256519082#1 256519082#2 24038175#0 24038175#1 123483760#0 123483760#1 123483760#2 123483760#3 123483760#4 123483915#0 123483915#1 -123484050#1"/>
	</vehicle>
	<vehicle id="3995" depart="1.66" departLane="best" departSpeed="0.00" fromTaz="6" toTaz="1000" type="car" >
		<route edges="345228944#0 345228944#1 345228944#2 345228944#3 406068842 406068843 32907218 19917361 19917367 19916362#1 19916362#2 19916362#3 23141213 23904701#4 77806028#0 77806028#1 77806028#2 77806028#3 77806026#3 77806026#4 77806016#0 77806016#1 77806016#2 77806016#3 77806016#4 19916359#7 19916359#0 19916359#1 151292464#0 151292464#1 151292464#2 151292464#3 -304149611#6 -304149611#5 -304149611#4 -304149611#3 -304149611#2 -304149611#1 -304149611#0 304149612#0 304149612#1 304149612#2 304149612#3 409579349 174188604#0 174188604#1 174188604#2 174188604#3 32900470#5 395906341#0 395906341#1 -227354784#6 -227354784#5 -227354784#4 -227354784#3 -227354784#2 -227354784#1 -158349118 -158349113#1 -158349113#0 357265153#2 357265153#3 357265153#4 32900481#0 32900481#1 32900481#2 32900481#3 -gneE0 409044039#2 409044039#3 409044039#4 32900507 409139012 23907551 409076848#0 409076848#1 409076848#2 -23971683#4 -23971683#3 -23971683#2 -23971683#1 -23971683#0 75117884#0 75117884#1 75117884#2 75117884#3 75117914#0 75117914#1 23907576 75117825 75117901 23907575#2 23907575#3 409073643#0 23907577#0 23907577#1 23907577#2 23907577#3 23907577#4 23907578#2 23907578#3 23907578#4 23907578#5 123021264#0 123021264#1 123021264#2 118201172#0 118201172#1 118201172#2 118201172#3 118201172#4 118201172#5 118201172#6 118201172#7 118201172#8 23957347#3 23957347#0 -212506551 212506550#1 -23907666 35968932 35968933 45830365 22940827#2 218015769 218015770#0 91332256 50170591#2 32906811 32906812 50170579#0 50170579#1 50170579#2 -50170608#0 32906889#7 32906889#8 32880258"/>
	</vehicle>
	<vehicle id="4534" depart="2.01" departLane="best" departSpeed="0.00" fromTaz="7" toTaz="1000" type="car" >
		<route edges="-95159050#1 -95159050#0 95159044 22940862#2 22940862#3 22933064 95159032#0 95159032#1 95159032#2 29287039 22940890#1 22940890#2 23957279 -29287011 -118195328#2 -118195328#1 -118195328#0 118195336 23957267#6 27540921 23957264#0 23957264#1 77058978 118195337 27540909#1 27540909#2 249995216#0 249995216#1 118195325#0 118195325#1 118195343 118195326#3 118195326#4 118195326#5 118195334 118195327#0 118195327#1 118195327#2 118195327#3 118195327#4 118195327#5 118195338 75689698#1 75689698#2 75689698#3 75689698#4 75117872 75117863#2 409064668#0 409064668#1 409064668#2 409064668#3 118195341 -443446515#3 -443446515#2 -443446515#1 -443446515#0 -75126438#1 -75126438#0 -75117905 75117896 -75117887#2 -75117887#1 -75117887#0 75117926#0 75117926#1 75117926#2 75117926#3 75117926#4 75117926#5 409341278 23867507 23867499#3 23867499#4 23867499#5 23867498 91348386#0 23881407#0 23881407#1 252184788#0 252184788#1 252184788#2 23858696#3 23858696#4 23858696#5 23858696#6 32403419#0 32403419#1 32403419#2 32403419#3 32403419#4 32403419#5 32403209 133787497#0 133787497#1 133787497#2 133787497#3 61312530#0 61312530#1 61312530#2 61312530#3 -158255565 -158255574#2 -158255574#1 192156459 32401945#0 32401945#1 32402214 28343782#5 28343782#6 32402162 76508326#0 76508326#1 76508326#2 380895136#0 380895136#1 158350671 19916359#4 19916359#5 77806025#0 77806025#1 77806025#2 77806025#3 77806025#4 77806025#5 77806025#6 77806025#7 77806025#8 77806026#6 77806026#0 77806020 345227289#0 345227289#1"/>
	</vehicle>
	<vehicle id="3998" depart="2.54" departLane="best" departSpeed="0.00" fromTaz="6" toTaz="1000" type="car" >
		<route edges="345228944#0 345228944#1 345228944#2 345228944#3 406068842 406068843 32907218 19917361 19917367 19916362#1 19916362#2 19916362#3 23141213 23904701#4 77806028#0 77806028#1 77806028#2 77806028#3 77806026#3 77806026#4 77806016#0 77806016#1 77806016#2 77806016#3 77806016#4 19916359#7 19916359#0 19916359#1 19916359#2 32900540 158350668#0 158350668#1 158350668#2 158350668#3 158350668#4 32401917 28343782#0 32402031 45193643#0"/>
	</vehicle>
	<vehicle id="1029" depart="2.92" departLane="best" departSpeed="0.00" fromTaz="1000" toTaz="1000" type="car" >
		<route edges="-75117816#1 -75117816#0 -23907627#9 -23907627#8 -23907627#7 -23907627#6 -23907627#5 -23907627#4 -23907627#3 -23907627#2 -23907627#1 -23907627#0 23907628#4 23907628#0 23907628#1 256585718#0 256585718#1 256585718#2 256585718#3 408924700#0 408924700#1 408924700#2 408924700#3 408924700#4 75117832#0 75117832#1 75117832#2 75117832#3 75117832#4 75117832#5 75117832#6 75117832#7 75117832#8 75117832#9 gneE1 -gneE0 409044039#2 409044039#3 409044039#4 32900507 409139012 23907551 409076848#0 409076848#1 409076848#2 -23971683#4 -23971683#3 -23971683#2 -23971683#1 -23971683#0 75117884#0 75117884#1 75117884#2 75117884#3 75117884#4 409076845 75117923#0 75117923#1 75117923#2 75117923#3 75117923#4 75117923#5 75117887#0 75117887#1 75117887#2 -75117896 75117905 75126438#0 75126438#1 443446515#0 443446515#1 443446515#2 443446515#3 118195332 409064673 75117863#0 118195344#0 118195344#1 118195344#2 75689698#6 75689698#7 118195330#0 118195330#1 -118195327#5 -118195327#4 -118195327#3 -118195327#2 -118195327#1 -118195327#0 118195331 118195326#1 118195339 -118195325#1 -118195325#0 118195333 27540909#4 27540909#5 27540909#6 27540909#0 27540909#1 249995215 -32933482#3 -32933482#2 -313839708 -154170742#1 154170705#0 154170705#1"/>
	</vehicle>
	<vehicle id="674" depart="3.14" departLane="best" departSpeed="0.00" fromTaz="1000" toTaz="1000" type="bus" >
		<route edges="161482080#3 161482080#4 161482080#5 161482080#6 23957371#6 23957371#0 23957371#1 23957371#2 23957371#3 23957370#0 23957370#1 23957370#2 23957370#3 23957370#4 23907578#7 23907578#8 23907578#0 76508312#0 76508312#1 76508312#2 409073642#0 409073642#1 409073644 23907575#0 75117821 75117834 23971663 75117848 75123299 75123352 69708147#0 69708147#1 409076845 75117923#0 75117923#1 75117923#2 75117923#3 75117923#4 75117923#5 75117926#0 75117926#1 75117926#2 75117926#3 75117926#4 75117926#5 409341278 23867507 23867499#3 19916361#0 19916361#1 19916361#2 75117826#0 75117826#1 75117898#0 75117898#1 23858749#0 23858774#0 23858774#1 23858774#2 32559731#0 32559731#1"/>
	</vehicle>
	<vehicle id="4432" depart="3.23" departLane="best" departSpeed="0.00" fromTaz="6" toTaz="5" type="car" >
		<route edges="345228944#0 345228944#1 345228944#2 345228944#3 406068842 406068843 32907218 19917361 19917367 19916362#1 19916362#2 19916362#3 23141213 23904701#4 23904701#5 23904701#6 23904700 23957428#0 23957428#1 23957428#2 126777129#0 126777129#1 126777129#2"/>
	</vehicle>
	<vehicle id="4820" depart="3.28" departLane="best" departSpeed="0.00" fromTaz="8" toTaz="1000" type="car" >
		<route edges="-26141600 106134352 26141576#0 26141576#1 26141576#2 26141610#0 26141610#1 26141622#0 26141622#1 352790374#0 150036414#0 150036414#1 409263091#0 409263091#1 409263092 218015773#2 218015775 218015774#0 218015774#1 22890618#0 22890618#1 118201174#4 118201174#5 118201159 22890621#0 22890621#1 91341788 151082200#5 151082200#6 151082200#7 23904830 67079133#0 67079133#1 67079133#2 67079133#3 67079133#4 67091821#0 67091821#1 151082191#0 151082191#1 151082191#2 23907570 67091822#0 67091822#1 67091822#2 67091822#3 151082169 151082190#0 151082190#1 151082190#2 151082190#3 23971640 44785747 75117873 75117893 75810137 23971683#0 23971683#1 23971683#2 23971683#3 23971683#4 -409076848#2 -409076848#1 -409076848#0 -23907551 -409139012 -32900507 -409044039#4 -409044039#3 -409044039#2 gneE0 -32900481#3 -32900481#2 -32900481#1 -32900481#0 -357265153#4 -357265153#3 -357265153#2 -357265153#1 -357265153#0 357265150 24038170#1 23904766#0 23904766#1 23904766#2 23904766#3 23904766#4 357265141 227354784#0 227354784#1 227354784#2 227354784#3 227354784#4 227354784#5 227354784#6 395906342#0 395906342#1 395906342#2 395906342#3 32900470#1 32900470#2 28343727#0 28343727#1 174188606#0 32900452 158273370#1 158273370#2 158273370#3"/>
	</vehicle>
	<vehicle id="1425" depart="3.53" departLane="best" departSpeed="0.00" fromTaz="1000" toTaz="1000" type="car" >
		<route edges="409073640 75117857#0 75117857#1 75117857#2 23907577#3 23907577#4 23907578#2 23907578#3 23907578#4 23907578#5 123021264#0 123021264#1 123021264#2 123021264#3 123021264#4 23957371#5 23957371#6 23957371#0 123021267#0 123021267#1 123021267#2 23957343#3 23957343#4 123021266#0 123021266#1 123021266#2 23907587#2 23907587#3 23907587#4 35968928#0 35968928#1 35968931 23907663#0 23907663#1 218015782#0 218015782#1 218015782#2 23907661#0 23907661#1 218015767 218162385 218015785#0 218015785#1 91332251#0 91332251#1 218015766 218162386 218015787 218162399 22940838 218015786#0 123483944#0 123483944#1 123483944#2 -50170572#10 -50170572#9 -50170572#8 123484104#0"/>
	</vehicle>
	<vehicle id="4020" depart="3.62" departLane="best" departSpeed="0.00" fromTaz="6" toTaz="1000" type="car" >
		<route edges="345228944#0 345228944#1 345228944#2 345228944#3 406068842 406068843 32907218 19917361 19917367 19916362#1 19916362#2 19916362#3 23141213 23904701#4 77806028#0 77806028#1 77806028#2 77806028#3 77806026#3 77806026#4 77806016#0 77806016#1 77806016#2 77806016#3 77806016#4 19916359#7 19916359#0 19916359#1 151292464#0 151292464#1 151292464#2 151292464#3 -304149611#6 -304149611#5 -304149611#4 -304149611#3 -304149611#2 -304149611#1 -304149611#0 304149612#0 304149612#1 304149612#2 304149612#3 409579349 174188604#0 174188604#1 174188604#2 174188604#3 32900470#5 395906341#0 395906341#1 -227354784#6 -227354784#5 -227354784#4 -227354784#3 -227354784#2 -227354784#1 -158349118 -158349113#1 -158349113#0 357265153#2 357265153#3 357265153#4 32900481#0 32900481#1 32900481#2 32900481#3 -gneE0 409044039#2 409044039#3 409044039#4 32900507 409139012 23907551 409076848#0 409076848#1 409076848#2 -23971683#4 -23971683#3 -23971683#2 -23971683#1 -23971683#0 75117884#0 75117884#1 75117884#2 75117884#3 75117914#0 75117914#1 23907576 75117825 75117901 23907575#2 23907575#3 409073643#0 409073643#1 409073644 23907575#0 75117821"/>
	</vehicle>
	<vehicle id="3700" depart="3.62" departLane="best" departSpeed="0.00" fromTaz="5" toTaz="1000" type="motorcycle" >
		<route edges="180049723#0 180049723#1 23957428#4 23957447 23904701#1 23904701#2 23904701#3 23904701#4 77806028#0 77806028#1 77806028#2 77806028#3 77806026#3 77806026#4 77806016#0 77806016#1 77806016#2 77806016#3 77806016#4 19916359#7 19916359#0 19916359#1 151292464#0 151292464#1 151292464#2 151292464#3 -304149611#6 -304149611#5 -304149611#4 -304149611#3 -304149611#2 -304149611#1 -304149611#0 304149612#0 304149612#1 304149612#2 304149612#3 409579349 174188604#0 174188604#1 174188604#2 174188604#3 32900470#5 395906341#0 395906341#1 -227354784#6 -227354784#5 -227354784#4 -227354784#3 -227354784#2 -227354784#1 -158349118 -158349113#1 -158349113#0 357265153#2 357265153#3 357265153#4 32900481#0 32900481#1 32900481#2 32900481#3 75117911#0 75117911#1 75117911#2 75117911#3 75117911#4 75117911#5 75117911#6 75117911#7 75117911#8 75117911#9 75117911#10 75117911#11 75117911#12 23907635#1 23907635#2 23907635#3 151292453#0 151292453#1 151292453#2 151292453#3 151292453#4 151292453#5 151292453#6 151292453#7 151292453#8 151292453#9 -23971699#1 -23971702#0"/>
	</vehicle>
	<vehicle id="4040" depart="4.09" departLane="best" departSpeed="0.00" fromTaz="6" toTaz="1000" type="car" >
		<route edges="345228944#0 345228944#1 345228944#2 345228944#3 406068842 406068843 32907218 19917361 19917367 19916362#1 19916362#2 19916362#3 23141213 23904701#4 77806028#0 77806028#1 77806028#2 77806028#3 77806026#3 77806026#4 77806016#0 77806016#1 77806016#2 77806016#3 77806016#4 19916359#7 19916359#0 19916359#1 19916359#2 32900540 158350668#0 158350668#1 158350668#2 158350668#3 158350668#4 32401917 28343782#0 28343782#1 28343782#2 28343782#3 32401949 47002797 32402199#0 32402199#1 32402199#2 32402199#3 32402199#4 32402199#5 422507344#0 422507344#1 422507344#2 422507344#3 422507344#4 422507344#5 422507344#6 53161690#0 53161690#1 61312528 409052898 61312536#0 61312536#1 61312536#2 61312536#3 197935587 32401851#0 32401851#1 32401851#2 32401851#3 75117826#4 75117902#0 75117902#1 23867499#5 23867498 91348386#0 23881407#0 259646800 259646801#0 91348410 339795797"/>
	</vehicle>
	<vehicle id="2825" depart="4.19" departLane="best" departSpeed="0.00" fromTaz="3" toTaz="2" type="car" >
		<route edges="4616750#0 66732651 4616748#6 4616749 4616730#4 4616730#5 4616730#6 4616736 409768907 4616745 4616731#0 4616731#1 4616725#2 4616725#3 4616725#4 4616725#5 4616725#6 4616725#7 4616725#0 4616735#0 22913304 318886585#3 330982381 330982391 330982380 330982399#0 330982399#1 330982399#2 330982399#3 329462043 329462033 329462040 329462046 328644489 328644487 179175834 328644849 328644846 328644851 77697382 24545612 24545613#0 24545613#1 38754462 23859154#0 23859154#1"/>
	</vehicle>
	<vehicle id="1568" depart="4.33" departLane="best" departSpeed="0.00" fromTaz="1000" toTaz="2" type="car" >
		<route edges="165660901 76508295 76508313#2 -76508327 76508329#2 76508329#3 22933136#3 22933136#4 22933136#5 22933228 22933161#0 22933161#1 22933163 22933164 22933193 22933157#3 22933215 330982399#1 330982399#2 330982399#3 329462043 329462033 329462040 329462046 328644489 328644487 179175834 328644849 328644846 328644851 77697382 24545612 24545613#0 24545613#1 38754462 23859154#0 23859154#1"/>
	</vehicle>
	<vehicle id="4334" depart="4.69" departLane="best" departSpeed="0.00" fromTaz="6" toTaz="5" type="taxi" >
		<route edges="345228944#0 345228944#1 345228944#2 345228944#3 406068842 406068843 32907218 19917361 19917367 19916362#1 19916362#2 19916362#3 23141213 23904701#4 23904701#5 23904701#6 23904700 23957428#0 23957428#1 23957428#2 126777129#0 126777129#1 126777129#2"/>
	</vehicle>
	<vehicle id="3961" depart="5.03" departLane="best" departSpeed="0.00" fromTaz="6" toTaz="1000" type="car" >
		<route edges="345228944#0 345228944#1 345228944#2 345228944#3 406068842 406068843 32907218 19917361 19917367 19916362#1 19916362#2 19916362#3 23141213 23904701#4 77806028#0 77806028#1 77806028#2 77806028#3 77806026#3 77806026#4 77806016#0 77806016#1 77806016#2 77806016#3 77806016#4 19916359#7 19916359#0 19916359#1 151292464#0 151292464#1 151292464#2 151292464#3 -304149611#6 -304149611#5 36250027"/>
	</vehicle>
	<vehicle id="1979" depart="5.34" departLane="best" departSpeed="0.00" fromTaz="1000" toTaz="5" type="motorcycle" >
		<route edges="-253086824 253086826#1 253086826#2 77065287#3 77065287#4 77065287#5 75117832#7 75117832#8 75117832#9 gneE1 -32900481#3 -32900481#2 -32900481#1 -32900481#0 -357265153#4 -357265153#3 -357265153#2 -357265153#1 -357265153#0 357265150 24038170#1 23904766#0 23904766#1 23904766#2 23904766#3 23904766#4 357265141 227354784#0 227354784#1 227354784#2 227354784#3 227354784#4 227354784#5 227354784#6 395906342#0 395906342#1 395906342#2 395906342#3 32900470#1 32900470#2 32900470#3 32900469 409578705#0 409578705#1 409578705#2 409578705#3 409578705#4 409578705#5 408891184#0 408891184#1 75117864#0 75117864#1 75117864#2 304149611#0 304149611#1 304149611#2 304149611#3 304149611#4 304149611#5 304149611#6 151292465#0 151292465#1 151292465#2 151292465#3 19916359#3 19916359#4 19916359#5 77806025#0 77806025#1 77806025#2 77806025#3 77806025#4 77806025#5 77806025#6 77806025#7 77806025#8 77806026#6 77806026#0 77806026#1 23904729#0 23904729#1 23904701#6 23904700 23957428#0 23957432#0 23957432#1 23957432#2 22725997#6 22725997#7 22725997#0 22725997#1 22725997#2 22726014#0 22726014#1 125233793#0 125233793#1 180049721#0 180049721#1"/>
	</vehicle>
	<vehicle id="2553" depart="5.67" departLane="best" departSpeed="0.00" fromTaz="3" toTaz="1" type="car" >
		<route edges="4616750#0 66732651 4616748#6 4616749 4616730#4 4616730#5 4616730#6 4616736 85892142 330982395#0 330982395#1 409770784"/>
	</vehicle>
	<vehicle id="4155" depart="6.04" departLane="best" departSpeed="0.00" fromTaz="6" toTaz="2" type="motorcycle" >