<?xml version="1.0" encoding="UTF-8"?>

<!-- generated on Thu Nov 21 21:57:22 2019 by SUMO duarouter Version 0.27.1
<?xml version="1.0" encoding="UTF-8"?>

<configuration xmlns:xsi="http://www.w3.org/2001/XMLSchema-instance" xsi:noNamespaceSchemaLocation="http://sumo.dlr.de/xsd/duarouterConfiguration.xsd">

    <input>
        <net-file value="alcalahenares_Emergency_pru_01.net.xml"/>
        <trip-files value="alcalahenares_Emergency_pru_01.trip.xml"/>
    </input>

    <output>
        <output-file value="alcalahenares_Emergency_pru_01.routes.xml"/>
    </output>

    <processing>
        <ignore-errors value="true"/>
        <max-alternatives value="10"/>
        <remove-loops value="true"/>
        <repair value="true"/>
        <repair.from value="true"/>
        <repair.to value="true"/>
    </processing>

    <time>
        <begin value="0"/>
        <end value="3600"/>
    </time>

</configuration>
-->

<routes xmlns:xsi="http://www.w3.org/2001/XMLSchema-instance" xsi:noNamespaceSchemaLocation="http://sumo.dlr.de/xsd/routes_file.xsd">
	<vType id="POLICEMEN" vClass="passenger" emissionClass="HBEFA3/PC_G_EU4" />
	<vehicle_id="110044" depart="607.38" departLane="best" departSpeed="0.00" fromTaz="1120005" toTaz="1120003" type="POLICEMEN" >
		<route edges="71213423#0 71213418 151082190#2 151082190#3 23971640 44785747 75117873 75117893 75810137 23971683#0 23971683#1 23971683#2 23971683#3 23971683#4 -409076848#2 -409076848#1 -409076848#0 409076847#0 409076847#1 409076847#2 409076847#3 151292466#2"/>
	</vehicle>
	<vehicle_id="110029" depart="619.60" departLane="best" departSpeed="0.00" fromTaz="1120005" toTaz="1120003" type="POLICEMEN" >
		<route edges="71213423#0 71213418 151082190#2 151082190#3 23971640 44785747 75117873 75117893 75810137 23971683#0 23971683#1 23971683#2 23971683#3 23971683#4 -409076848#2 -409076848#1 -409076848#0 409076847#0 409076847#1 409076847#2 409076847#3 151292466#2"/>
	</vehicle>
	<vehicle_id="110019" depart="625.67" departLane="best" departSpeed="0.00" fromTaz="1120005" toTaz="1120003" type="POLICEMEN" >
		<route edges="71213423#0 71213418 151082190#2 151082190#3 23971640 44785747 75117873 75117893 75810137 23971683#0 23971683#1 23971683#2 23971683#3 23971683#4 -409076848#2 -409076848#1 -409076848#0 409076847#0 409076847#1 409076847#2 409076847#3 151292466#2"/>
	</vehicle>
	<vehicle_id="110042" depart="641.55" departLane="best" departSpeed="0.00" fromTaz="1120005" toTaz="1120003" type="POLICEMEN" >
		<route edges="71213423#0 71213418 151082190#2 151082190#3 23971640 44785747 75117873 75117893 75810137 23971683#0 23971683#1 23971683#2 23971683#3 23971683#4 -409076848#2 -409076848#1 -409076848#0 409076847#0 409076847#1 409076847#2 409076847#3 151292466#2"/>
	</vehicle>
	<vehicle_id="110049" depart="657.85" departLane="best" departSpeed="0.00" fromTaz="1120005" toTaz="1120003" type="POLICEMEN" >
		<route edges="71213423#0 71213418 151082190#2 151082190#3 23971640 44785747 75117873 75117893 75810137 23971683#0 23971683#1 23971683#2 23971683#3 23971683#4 -409076848#2 -409076848#1 -409076848#0 409076847#0 409076847#1 409076847#2 409076847#3 151292466#2"/>
	</vehicle>
	<vehicle_id="110033" depart="672.60" departLane="best" departSpeed="0.00" fromTaz="1120005" toTaz="1120003" type="POLICEMEN" >
		<route edges="71213423#0 71213418 151082190#2 151082190#3 23971640 44785747 75117873 75117893 75810137 23971683#0 23971683#1 23971683#2 23971683#3 23971683#4 -409076848#2 -409076848#1 -409076848#0 409076847#0 409076847#1 409076847#2 409076847#3 151292466#2"/>
	</vehicle>
	<vehicle_id="110045" depart="701.67" departLane="best" departSpeed="0.00" fromTaz="1120005" toTaz="1120003" type="POLICEMEN" >
		<route edges="71213423#0 71213418 151082190#2 151082190#3 23971640 44785747 75117873 75117893 75810137 23971683#0 23971683#1 23971683#2 23971683#3 23971683#4 -409076848#2 -409076848#1 -409076848#0 409076847#0 409076847#1 409076847#2 409076847#3 151292466#2"/>
	</vehicle>
	<vehicle_id="110016" depart="751.17" departLane="best" departSpeed="0.00" fromTaz="1120005" toTaz="1120003" type="POLICEMEN" >
		<route edges="71213423#0 71213418 151082190#2 151082190#3 23971640 44785747 75117873 75117893 75810137 23971683#0 23971683#1 23971683#2 23971683#3 23971683#4 -409076848#2 -409076848#1 -409076848#0 409076847#0 409076847#1 409076847#2 409076847#3 151292466#2"/>
	</vehicle>
	<vehicle_id="110011" depart="762.06" departLane="best" departSpeed="0.00" fromTaz="1120005" toTaz="1120003" type="POLICEMEN" >
		<route edges="71213423#0 71213418 151082190#2 151082190#3 23971640 44785747 75117873 75117893 75810137 23971683#0 23971683#1 23971683#2 23971683#3 23971683#4 -409076848#2 -409076848#1 -409076848#0 409076847#0 409076847#1 409076847#2 409076847#3 151292466#2"/>
	</vehicle>
	<vehicle_id="110037" depart="767.24" departLane="best" departSpeed="0.00" fromTaz="1120005" toTaz="1120003" type="POLICEMEN" >
		<route edges="71213423#0 71213418 151082190#2 151082190#3 23971640 44785747 75117873 75117893 75810137 23971683#0 23971683#1 23971683#2 23971683#3 23971683#4 -409076848#2 -409076848#1 -409076848#0 409076847#0 409076847#1 409076847#2 409076847#3 151292466#2"/>
	</vehicle>
	<vehicle_id="110036" depart="779.74" departLane="best" departSpeed="0.00" fromTaz="1120005" toTaz="1120003" type="POLICEMEN" >
		<route edges="71213423#0 71213418 151082190#2 151082190#3 23971640 44785747 75117873 75117893 75810137 23971683#0 23971683#1 23971683#2 23971683#3 23971683#4 -409076848#2 -409076848#1 -409076848#0 409076847#0 409076847#1 409076847#2 409076847#3 151292466#2"/>
	</vehicle>
	<vehicle_id="110035" depart="782.59" departLane="best" departSpeed="0.00" fromTaz="1120005" toTaz="1120003" type="POLICEMEN" >
		<route edges="71213423#0 71213418 151082190#2 151082190#3 23971640 44785747 75117873 75117893 75810137 23971683#0 23971683#1 23971683#2 23971683#3 23971683#4 -409076848#2 -409076848#1 -409076848#0 409076847#0 409076847#1 409076847#2 409076847#3 151292466#2"/>
	</vehicle>
	<vehicle_id="110028" depart="816.11" departLane="best" departSpeed="0.00" fromTaz="1120005" toTaz="1120003" type="POLICEMEN" >
		<route edges="71213423#0 71213418 151082190#2 151082190#3 23971640 44785747 75117873 75117893 75810137 23971683#0 23971683#1 23971683#2 23971683#3 23971683#4 -409076848#2 -409076848#1 -409076848#0 409076847#0 409076847#1 409076847#2 409076847#3 151292466#2"/>
	</vehicle>
	<vehicle_id="110040" depart="862.10" departLane="best" departSpeed="0.00" fromTaz="1120005" toTaz="1120003" type="POLICEMEN" >
		<route edges="71213423#0 71213418 151082190#2 151082190#3 23971640 44785747 75117873 75117893 75810137 23971683#0 23971683#1 23971683#2 23971683#3 23971683#4 -409076848#2 -409076848#1 -409076848#0 409076847#0 409076847#1 409076847#2 409076847#3 151292466#2"/>
	</vehicle>
	<vehicle_id="110046" depart="905.79" departLane="best" departSpeed="0.00" fromTaz="1120005" toTaz="1120003" type="POLICEMEN" >
		<route edges="71213423#0 71213418 151082190#2 151082190#3 23971640 44785747 75117873 75117893 75810137 23971683#0 23971683#1 23971683#2 23971683#3 23971683#4 -409076848#2 -409076848#1 -409076848#0 409076847#0 409076847#1 409076847#2 409076847#3 151292466#2"/>
	</vehicle>
	<vehicle_id="110022" depart="945.65" departLane="best" departSpeed="0.00" fromTaz="1120005" toTaz="1120003" type="POLICEMEN" >
		<route edges="71213423#0 71213418 151082190#2 151082190#3 23971640 44785747 75117873 75117893 75810137 23971683#0 23971683#1 23971683#2 23971683#3 23971683#4 -409076848#2 -409076848#1 -409076848#0 409076847#0 409076847#1 409076847#2 409076847#3 151292466#2"/>
	</vehicle>
	<vehicle_id="110021" depart="952.32" departLane="best" departSpeed="0.00" fromTaz="1120005" toTaz="1120003" type="POLICEMEN" >
		<route edges="71213423#0 71213418 151082190#2 151082190#3 23971640 44785747 75117873 75117893 75810137 23971683#0 23971683#1 23971683#2 23971683#3 23971683#4 -409076848#2 -409076848#1 -409076848#0 409076847#0 409076847#1 409076847#2 409076847#3 151292466#2"/>
	</vehicle>
	<vehicle_id="11000" depart="990.93" departLane="best" departSpeed="0.00" fromTaz="1120005" toTaz="1120003" type="POLICEMEN" >
		<route edges="71213423#0 71213418 151082190#2 151082190#3 23971640 44785747 75117873 75117893 75810137 23971683#0 23971683#1 23971683#2 23971683#3 23971683#4 -409076848#2 -409076848#1 -409076848#0 409076847#0 409076847#1 409076847#2 409076847#3 151292466#2"/>
	</vehicle>
	<vehicle_id="110005" depart="1010.45" departLane="best" departSpeed="0.00" fromTaz="1120005" toTaz="1120003" type="POLICEMEN" >
		<route edges="71213423#0 71213418 151082190#2 151082190#3 23971640 44785747 75117873 75117893 75810137 23971683#0 23971683#1 23971683#2 23971683#3 23971683#4 -409076848#2 -409076848#1 -409076848#0 409076847#0 409076847#1 409076847#2 409076847#3 151292466#2"/>
	</vehicle>
	<vehicle_id="110041" depart="1010.68" departLane="best" departSpeed="0.00" fromTaz="1120005" toTaz="1120003" type="POLICEMEN" >
		<route edges="71213423#0 71213418 151082190#2 151082190#3 23971640 44785747 75117873 75117893 75810137 23971683#0 23971683#1 23971683#2 23971683#3 23971683#4 -409076848#2 -409076848#1 -409076848#0 409076847#0 409076847#1 409076847#2 409076847#3 151292466#2"/>
	</vehicle>
	<vehicle_id="110032" depart="1023.68" departLane="best" departSpeed="0.00" fromTaz="1120005" toTaz="1120003" type="POLICEMEN" >
		<route edges="71213423#0 71213418 151082190#2 151082190#3 23971640 44785747 75117873 75117893 75810137 23971683#0 23971683#1 23971683#2 23971683#3 23971683#4 -409076848#2 -409076848#1 -409076848#0 409076847#0 409076847#1 409076847#2 409076847#3 151292466#2"/>
	</vehicle>
	<vehicle_id="110001" depart="1076.94" departLane="best" departSpeed="0.00" fromTaz="1120005" toTaz="1120003" type="POLICEMEN" >
		<route edges="71213423#0 71213418 151082190#2 151082190#3 23971640 44785747 75117873 75117893 75810137 23971683#0 23971683#1 23971683#2 23971683#3 23971683#4 -409076848#2 -409076848#1 -409076848#0 409076847#0 409076847#1 409076847#2 409076847#3 151292466#2"/>
	</vehicle>
	<vehicle_id="110025" depart="1142.30" departLane="best" departSpeed="0.00" fromTaz="1120005" toTaz="1120003" type="POLICEMEN" >
		<route edges="71213423#0 71213418 151082190#2 151082190#3 23971640 44785747 75117873 75117893 75810137 23971683#0 23971683#1 23971683#2 23971683#3 23971683#4 -409076848#2 -409076848#1 -409076848#0 409076847#0 409076847#1 409076847#2 409076847#3 151292466#2"/>
	</vehicle>
	<vehicle_id="110003" depart="1254.29" departLane="best" departSpeed="0.00" fromTaz="1120005" toTaz="1120003" type="POLICEMEN" >
		<route edges="71213423#0 71213418 151082190#2 151082190#3 23971640 44785747 75117873 75117893 75810137 23971683#0 23971683#1 23971683#2 23971683#3 23971683#4 -409076848#2 -409076848#1 -409076848#0 409076847#0 409076847#1 409076847#2 409076847#3 151292466#2"/>
	</vehicle>
	<vehicle_id="110015" depart="1266.67" departLane="best" departSpeed="0.00" fromTaz="1120005" toTaz="1120003" type="POLICEMEN" >
		<route edges="71213423#0 71213418 151082190#2 151082190#3 23971640 44785747 75117873 75117893 75810137 23971683#0 23971683#1 23971683#2 23971683#3 23971683#4 -409076848#2 -409076848#1 -409076848#0 409076847#0 409076847#1 409076847#2 409076847#3 151292466#2"/>
	</vehicle>
	<vehicle_id="110017" depart="1324.95" departLane="best" departSpeed="0.00" fromTaz="1120005" toTaz="1120003" type="POLICEMEN" >
		<route edges="71213423#0 71213418 151082190#2 151082190#3 23971640 44785747 75117873 75117893 75810137 23971683#0 23971683#1 23971683#2 23971683#3 23971683#4 -409076848#2 -409076848#1 -409076848#0 409076847#0 409076847#1 409076847#2 409076847#3 151292466#2"/>
	</vehicle>
	<vehicle_id="110047" depart="1337.42" departLane="best" departSpeed="0.00" fromTaz="1120005" toTaz="1120003" type="POLICEMEN" >
		<route edges="71213423#0 71213418 151082190#2 151082190#3 23971640 44785747 75117873 75117893 75810137 23971683#0 23971683#1 23971683#2 23971683#3 23971683#4 -409076848#2 -409076848#1 -409076848#0 409076847#0 409076847#1 409076847#2 409076847#3 151292466#2"/>
	</vehicle>
	<vehicle_id="110007" depart="1355.38" departLane="best" departSpeed="0.00" fromTaz="1120005" toTaz="1120003" type="POLICEMEN" >
		<route edges="71213423#0 71213418 151082190#2 151082190#3 23971640 44785747 75117873 75117893 75810137 23971683#0 23971683#1 23971683#2 23971683#3 23971683#4 -409076848#2 -409076848#1 -409076848#0 409076847#0 409076847#1 409076847#2 409076847#3 151292466#2"/>
	</vehicle>
	<vehicle_id="110026" depart="1385.27" departLane="best" departSpeed="0.00" fromTaz="1120005" toTaz="1120003" type="POLICEMEN" >
		<route edges="71213423#0 71213418 151082190#2 151082190#3 23971640 44785747 75117873 75117893 75810137 23971683#0 23971683#1 23971683#2 23971683#3 23971683#4 -409076848#2 -409076848#1 -409076848#0 409076847#0 409076847#1 409076847#2 409076847#3 151292466#2"/>
	</vehicle>
	<vehicle_id="110030" depart="1504.21" departLane="best" departSpeed="0.00" fromTaz="1120005" toTaz="1120003" type="POLICEMEN" >
		<route edges="71213423#0 71213418 151082190#2 151082190#3 23971640 44785747 75117873 75117893 75810137 23971683#0 23971683#1 23971683#2 23971683#3 23971683#4 -409076848#2 -409076848#1 -409076848#0 409076847#0 409076847#1 409076847#2 409076847#3 151292466#2"/>
	</vehicle>
	<vehicle_id="110061" depart="1506.36" departLane="best" departSpeed="0.00" fromTaz="1120003" toTaz="1120005" type="POLICEMEN" >
		<route edges="151292466#1 151292466#2 23881461#0 28343758#0 28343758#1 314111997#0 -69966120#5 -69966120#4 -69966120#3 -69966120#2 -69966120#1 -69966120#0 -23971683#4 -23971683#3 -23971683#2 -23971683#1 -23971683#0 -75810137 -75117893 -75117873 -44785747 23971650 23971646#0 23971646#1 23971646#2 151082184 151082190#0 71213419 71213423#2 71213417#0 71213417#1 71213426 160639339 160639318#1 71213423#0"/>
	</vehicle>
	<vehicle_id="110067" depart="1513.56" departLane="best" departSpeed="0.00" fromTaz="1120003" toTaz="1120005" type="POLICEMEN" >
		<route edges="151292466#1 151292466#2 23881461#0 28343758#0 28343758#1 314111997#0 -69966120#5 -69966120#4 -69966120#3 -69966120#2 -69966120#1 -69966120#0 -23971683#4 -23971683#3 -23971683#2 -23971683#1 -23971683#0 -75810137 -75117893 -75117873 -44785747 23971650 23971646#0 23971646#1 23971646#2 151082184 151082190#0 71213419 71213423#2 71213417#0 71213417#1 71213426 160639339 160639318#1 71213423#0"/>
	</vehicle>
	<vehicle_id="110058" depart="1527.48" departLane="best" departSpeed="0.00" fromTaz="1120003" toTaz="1120005" type="POLICEMEN" >
		<route edges="151292466#1 151292466#2 23881461#0 28343758#0 28343758#1 314111997#0 -69966120#5 -69966120#4 -69966120#3 -69966120#2 -69966120#1 -69966120#0 -23971683#4 -23971683#3 -23971683#2 -23971683#1 -23971683#0 -75810137 -75117893 -75117873 -44785747 23971650 23971646#0 23971646#1 23971646#2 151082184 151082190#0 71213419 71213423#2 71213417#0 71213417#1 71213426 160639339 160639318#1 71213423#0"/>
	</vehicle>
	<vehicle_id="110039" depart="1527.91" departLane="best" departSpeed="0.00" fromTaz="1120005" toTaz="1120003" type="POLICEMEN" >
		<route edges="71213423#0 71213418 151082190#2 151082190#3 23971640 44785747 75117873 75117893 75810137 23971683#0 23971683#1 23971683#2 23971683#3 23971683#4 -409076848#2 -409076848#1 -409076848#0 409076847#0 409076847#1 409076847#2 409076847#3 151292466#2"/>
	</vehicle>
	<vehicle_id="110082" depart="1530.86" departLane="best" departSpeed="0.00" fromTaz="1120003" toTaz="1120005" type="POLICEMEN" >
		<route edges="151292466#1 151292466#2 23881461#0 28343758#0 28343758#1 314111997#0 -69966120#5 -69966120#4 -69966120#3 -69966120#2 -69966120#1 -69966120#0 -23971683#4 -23971683#3 -23971683#2 -23971683#1 -23971683#0 -75810137 -75117893 -75117873 -44785747 23971650 23971646#0 23971646#1 23971646#2 151082184 151082190#0 71213419 71213423#2 71213417#0 71213417#1 71213426 160639339 160639318#1 71213423#0"/>
	</vehicle>
	<vehicle_id="110075" depart="1542.16" departLane="best" departSpeed="0.00" fromTaz="1120003" toTaz="1120005" type="POLICEMEN" >
		<route edges="151292466#1 151292466#2 23881461#0 28343758#0 28343758#1 314111997#0 -69966120#5 -69966120#4 -69966120#3 -69966120#2 -69966120#1 -69966120#0 -23971683#4 -23971683#3 -23971683#2 -23971683#1 -23971683#0 -75810137 -75117893 -75117873 -44785747 23971650 23971646#0 23971646#1 23971646#2 151082184 151082190#0 71213419 71213423#2 71213417#0 71213417#1 71213426 160639339 160639318#1 71213423#0"/>
	</vehicle>
	<vehicle_id="110081" depart="1567.68" departLane="best" departSpeed="0.00" fromTaz="1120003" toTaz="1120005" type="POLICEMEN" >
		<route edges="151292466#1 151292466#2 23881461#0 28343758#0 28343758#1 314111997#0 -69966120#5 -69966120#4 -69966120#3 -69966120#2 -69966120#1 -69966120#0 -23971683#4 -23971683#3 -23971683#2 -23971683#1 -23971683#0 -75810137 -75117893 -75117873 -44785747 23971650 23971646#0 23971646#1 23971646#2 151082184 151082190#0 71213419 71213423#2 71213417#0 71213417#1 71213426 160639339 160639318#1 71213423#0"/>
	</vehicle>
	<vehicle_id="110065" depart="1580.26" departLane="best" departSpeed="0.00" fromTaz="1120003" toTaz="1120005" type="POLICEMEN" >
		<route edges="151292466#1 151292466#2 23881461#0 28343758#0 28343758#1 314111997#0 -69966120#5 -69966120#4 -69966120#3 -69966120#2 -69966120#1 -69966120#0 -23971683#4 -23971683#3 -23971683#2 -23971683#1 -23971683#0 -75810137 -75117893 -75117873 -44785747 23971650 23971646#0 23971646#1 23971646#2 151082184 151082190#0 71213419 71213423#2 71213417#0 71213417#1 71213426 160639339 160639318#1 71213423#0"/>
	</vehicle>
	<vehicle_id="110053" depart="1582.19" departLane="best" departSpeed="0.00" fromTaz="1120003" toTaz="1120005" type="POLICEMEN" >
		<route edges="151292466#1 151292466#2 23881461#0 28343758#0 28343758#1 314111997#0 -69966120#5 -69966120#4 -69966120#3 -69966120#2 -69966120#1 -69966120#0 -23971683#4 -23971683#3 -23971683#2 -23971683#1 -23971683#0 -75810137 -75117893 -75117873 -44785747 23971650 23971646#0 23971646#1 23971646#2 151082184 151082190#0 71213419 71213423#2 71213417#0 71213417#1 71213426 160639339 160639318#1 71213423#0"/>
	</vehicle>
	<vehicle_id="110096" depart="1589.60" departLane="best" departSpeed="0.00" fromTaz="1120003" toTaz="1120005" type="POLICEMEN" >
		<route edges="151292466#1 151292466#2 23881461#0 28343758#0 28343758#1 314111997#0 -69966120#5 -69966120#4 -69966120#3 -69966120#2 -69966120#1 -69966120#0 -23971683#4 -23971683#3 -23971683#2 -23971683#1 -23971683#0 -75810137 -75117893 -75117873 -44785747 23971650 23971646#0 23971646#1 23971646#2 151082184 151082190#0 71213419 71213423#2 71213417#0 71213417#1 71213426 160639339 160639318#1 71213423#0"/>
	</vehicle>
	<vehicle_id="110089" depart="1600.72" departLane="best" departSpeed="0.00" fromTaz="1120003" toTaz="1120005" type="POLICEMEN" >
		<route edges="151292466#1 151292466#2 23881461#0 28343758#0 28343758#1 314111997#0 -69966120#5 -69966120#4 -69966120#3 -69966120#2 -69966120#1 -69966120#0 -23971683#4 -23971683#3 -23971683#2 -23971683#1 -23971683#0 -75810137 -75117893 -75117873 -44785747 23971650 23971646#0 23971646#1 23971646#2 151082184 151082190#0 71213419 71213423#2 71213417#0 71213417#1 71213426 160639339 160639318#1 71213423#0"/>
	</vehicle>
	<vehicle_id="110072" depart="1606.81" departLane="best" departSpeed="0.00" fromTaz="1120003" toTaz="1120005" type="POLICEMEN" >
		<route edges="151292466#1 151292466#2 23881461#0 28343758#0 28343758#1 314111997#0 -69966120#5 -69966120#4 -69966120#3 -69966120#2 -69966120#1 -69966120#0 -23971683#4 -23971683#3 -23971683#2 -23971683#1 -23971683#0 -75810137 -75117893 -75117873 -44785747 23971650 23971646#0 23971646#1 23971646#2 151082184 151082190#0 71213419 71213423#2 71213417#0 71213417#1 71213426 160639339 160639318#1 71213423#0"/>
	</vehicle>
	<vehicle_id="110052" depart="1608.52" departLane="best" departSpeed="0.00" fromTaz="1120003" toTaz="1120005" type="POLICEMEN" >
		<route edges="151292466#1 151292466#2 23881461#0 28343758#0 28343758#1 314111997#0 -69966120#5 -69966120#4 -69966120#3 -69966120#2 -69966120#1 -69966120#0 -23971683#4 -23971683#3 -23971683#2 -23971683#1 -23971683#0 -75810137 -75117893 -75117873 -44785747 23971650 23971646#0 23971646#1 23971646#2 151082184 151082190#0 71213419 71213423#2 71213417#0 71213417#1 71213426 160639339 160639318#1 71213423#0"/>
	</vehicle>
	<vehicle_id="110048" depart="1623.41" departLane="best" departSpeed="0.00" fromTaz="1120005" toTaz="1120003" type="POLICEMEN" >
		<route edges="71213423#0 71213418 151082190#2 151082190#3 23971640 44785747 75117873 75117893 75810137 23971683#0 23971683#1 23971683#2 23971683#3 23971683#4 -409076848#2 -409076848#1 -409076848#0 409076847#0 409076847#1 409076847#2 409076847#3 151292466#2"/>
	</vehicle>
	<vehicle_id="110093" depart="1634.91" departLane="best" departSpeed="0.00" fromTaz="1120003" toTaz="1120005" type="POLICEMEN" >
		<route edges="151292466#1 151292466#2 23881461#0 28343758#0 28343758#1 314111997#0 -69966120#5 -69966120#4 -69966120#3 -69966120#2 -69966120#1 -69966120#0 -23971683#4 -23971683#3 -23971683#2 -23971683#1 -23971683#0 -75810137 -75117893 -75117873 -44785747 23971650 23971646#0 23971646#1 23971646#2 151082184 151082190#0 71213419 71213423#2 71213417#0 71213417#1 71213426 160639339 160639318#1 71213423#0"/>
	</vehicle>
	<vehicle_id="110059" depart="1636.13" departLane="best" departSpeed="0.00" fromTaz="1120003" toTaz="1120005" type="POLICEMEN" >
		<route edges="151292466#1 151292466#2 23881461#0 28343758#0 28343758#1 314111997#0 -69966120#5 -69966120#4 -69966120#3 -69966120#2 -69966120#1 -69966120#0 -23971683#4 -23971683#3 -23971683#2 -23971683#1 -23971683#0 -75810137 -75117893 -75117873 -44785747 23971650 23971646#0 23971646#1 23971646#2 151082184 151082190#0 71213419 71213423#2 71213417#0 71213417#1 71213426 160639339 160639318#1 71213423#0"/>
	</vehicle>
	<vehicle_id="110038" depart="1638.84" departLane="best" departSpeed="0.00" fromTaz="1120005" toTaz="1120003" type="POLICEMEN" >
		<route edges="71213423#0 71213418 151082190#2 151082190#3 23971640 44785747 75117873 75117893 75810137 23971683#0 23971683#1 23971683#2 23971683#3 23971683#4 -409076848#2 -409076848#1 -409076848#0 409076847#0 409076847#1 409076847#2 409076847#3 151292466#2"/>
	</vehicle>
	<vehicle_id="110070" depart="1642.95" departLane="best" departSpeed="0.00" fromTaz="1120003" toTaz="1120005" type="POLICEMEN" >
		<route edges="151292466#1 151292466#2 23881461#0 28343758#0 28343758#1 314111997#0 -69966120#5 -69966120#4 -69966120#3 -69966120#2 -69966120#1 -69966120#0 -23971683#4 -23971683#3 -23971683#2 -23971683#1 -23971683#0 -75810137 -75117893 -75117873 -44785747 23971650 23971646#0 23971646#1 23971646#2 151082184 151082190#0 71213419 71213423#2 71213417#0 71213417#1 71213426 160639339 160639318#1 71213423#0"/>
	</vehicle>
	<vehicle_id="110057" depart="1655.65" departLane="best" departSpeed="0.00" fromTaz="1120003" toTaz="1120005" type="POLICEMEN" >
		<route edges="151292466#1 151292466#2 23881461#0 28343758#0 28343758#1 314111997#0 -69966120#5 -69966120#4 -69966120#3 -69966120#2 -69966120#1 -69966120#0 -23971683#4 -23971683#3 -23971683#2 -23971683#1 -23971683#0 -75810137 -75117893 -75117873 -44785747 23971650 23971646#0 23971646#1 23971646#2 151082184 151082190#0 71213419 71213423#2 71213417#0 71213417#1 71213426 160639339 160639318#1 71213423#0"/>
	</vehicle>
	<vehicle_id="110060" depart="1669.47" departLane="best" departSpeed="0.00" fromTaz="1120003" toTaz="1120005" type="POLICEMEN" >
		<route edges="151292466#1 151292466#2 23881461#0 28343758#0 28343758#1 314111997#0 -69966120#5 -69966120#4 -69966120#3 -69966120#2 -69966120#1 -69966120#0 -23971683#4 -23971683#3 -23971683#2 -23971683#1 -23971683#0 -75810137 -75117893 -75117873 -44785747 23971650 23971646#0 23971646#1 23971646#2 151082184 151082190#0 71213419 71213423#2 71213417#0 71213417#1 71213426 160639339 160639318#1 71213423#0"/>
	</vehicle>
	<vehicle_id="110095" depart="1674.42" departLane="best" departSpeed="0.00" fromTaz="1120003" toTaz="1120005" type="POLICEMEN" >
		<route edges="151292466#1 151292466#2 23881461#0 28343758#0 28343758#1 314111997#0 -69966120#5 -69966120#4 -69966120#3 -69966120#2 -69966120#1 -69966120#0 -23971683#4 -23971683#3 -23971683#2 -23971683#1 -23971683#0 -75810137 -75117893 -75117873 -44785747 23971650 23971646#0 23971646#1 23971646#2 151082184 151082190#0 71213419 71213423#2 71213417#0 71213417#1 71213426 160639339 160639318#1 71213423#0"/>
	</vehicle>
	<vehicle_id="110083" depart="1709.51" departLane="best" departSpeed="0.00" fromTaz="1120003" toTaz="1120005" type="POLICEMEN" >
		<route edges="151292466#1 151292466#2 23881461#0 28343758#0 28343758#1 314111997#0 -69966120#5 -69966120#4 -69966120#3 -69966120#2 -69966120#1 -69966120#0 -23971683#4 -23971683#3 -23971683#2 -23971683#1 -23971683#0 -75810137 -75117893 -75117873 -44785747 23971650 23971646#0 23971646#1 23971646#2 151082184 151082190#0 71213419 71213423#2 71213417#0 71213417#1 71213426 160639339 160639318#1 71213423#0"/>
	</vehicle>
	<vehicle_id="110073" depart="1735.89" departLane="best" departSpeed="0.00" fromTaz="1120003" toTaz="1120005" type="POLICEMEN" >
		<route edges="151292466#1 151292466#2 23881461#0 28343758#0 28343758#1 314111997#0 -69966120#5 -69966120#4 -69966120#3 -69966120#2 -69966120#1 -69966120#0 -23971683#4 -23971683#3 -23971683#2 -23971683#1 -23971683#0 -75810137 -75117893 -75117873 -44785747 23971650 23971646#0 23971646#1 23971646#2 151082184 151082190#0 71213419 71213423#2 71213417#0 71213417#1 71213426 160639339 160639318#1 71213423#0"/>
	</vehicle>
	<vehicle_id="110086" depart="1763.89" departLane="best" departSpeed="0.00" fromTaz="1120003" toTaz="1120005" type="POLICEMEN" >
		<route edges="151292466#1 151292466#2 23881461#0 28343758#0 28343758#1 314111997#0 -69966120#5 -69966120#4 -69966120#3 -69966120#2 -69966120#1 -69966120#0 -23971683#4 -23971683#3 -23971683#2 -23971683#1 -23971683#0 -75810137 -75117893 -75117873 -44785747 23971650 23971646#0 23971646#1 23971646#2 151082184 151082190#0 71213419 71213423#2 71213417#0 71213417#1 71213426 160639339 160639318#1 71213423#0"/>
	</vehicle>
	<vehicle_id="110088" depart="1776.26" departLane="best" departSpeed="0.00" fromTaz="1120003" toTaz="1120005" type="POLICEMEN" >
		<route edges="151292466#1 151292466#2 23881461#0 28343758#0 28343758#1 314111997#0 -69966120#5 -69966120#4 -69966120#3 -69966120#2 -69966120#1 -69966120#0 -23971683#4 -23971683#3 -23971683#2 -23971683#1 -23971683#0 -75810137 -75117893 -75117873 -44785747 23971650 23971646#0 23971646#1 23971646#2 151082184 151082190#0 71213419 71213423#2 71213417#0 71213417#1 71213426 160639339 160639318#1 71213423#0"/>
	</vehicle>
	<vehicle_id="110074" depart="1789.55" departLane="best" departSpeed="0.00" fromTaz="1120003" toTaz="1120005" type="POLICEMEN" >
		<route edges="151292466#1 151292466#2 23881461#0 28343758#0 28343758#1 314111997#0 -69966120#5 -69966120#4 -69966120#3 -69966120#2 -69966120#1 -69966120#0 -23971683#4 -23971683#3 -23971683#2 -23971683#1 -23971683#0 -75810137 -75117893 -75117873 -44785747 23971650 23971646#0 23971646#1 23971646#2 151082184 151082190#0 71213419 71213423#2 71213417#0 71213417#1 71213426 160639339 160639318#1 71213423#0"/>
	</vehicle>
	<vehicle_id="110080" depart="1804.23" departLane="best" departSpeed="0.00" fromTaz="1120003" toTaz="1120005" type="POLICEMEN" >
		<route edges="151292466#1 151292466#2 23881461#0 28343758#0 28343758#1 314111997#0 -69966120#5 -69966120#4 -69966120#3 -69966120#2 -69966120#1 -69966120#0 -23971683#4 -23971683#3 -23971683#2 -23971683#1 -23971683#0 -75810137 -75117893 -75117873 -44785747 23971650 23971646#0 23971646#1 23971646#2 151082184 151082190#0 71213419 71213423#2 71213417#0 71213417#1 71213426 160639339 160639318#1 71213423#0"/>
	</vehicle>
	<vehicle_id="110069" depart="1808.16" departLane="best" departSpeed="0.00" fromTaz="1120003" toTaz="1120005" type="POLICEMEN" >
		<route edges="151292466#1 151292466#2 23881461#0 28343758#0 28343758#1 314111997#0 -69966120#5 -69966120#4 -69966120#3 -69966120#2 -69966120#1 -69966120#0 -23971683#4 -23971683#3 -23971683#2 -23971683#1 -23971683#0 -75810137 -75117893 -75117873 -44785747 23971650 23971646#0 23971646#1 23971646#2 151082184 151082190#0 71213419 71213423#2 71213417#0 71213417#1 71213426 160639339 160639318#1 71213423#0"/>
	</vehicle>
	<vehicle_id="110084" depart="1810.25" departLane="best" departSpeed="0.00" fromTaz="1120003" toTaz="1120005" type="POLICEMEN" >
		<route edges="151292466#1 151292466#2 23881461#0 28343758#0 28343758#1 314111997#0 -69966120#5 -69966120#4 -69966120#3 -69966120#2 -69966120#1 -69966120#0 -23971683#4 -23971683#3 -23971683#2 -23971683#1 -23971683#0 -75810137 -75117893 -75117873 -44785747 23971650 23971646#0 23971646#1 23971646#2 151082184 151082190#0 71213419 71213423#2 71213417#0 71213417#1 71213426 160639339 160639318#1 71213423#0"/>
	</vehicle>
	<vehicle_id="110077" depart="1819.61" departLane="best" departSpeed="0.00" fromTaz="1120003" toTaz="1120005" type="POLICEMEN" >
		<route edges="151292466#1 151292466#2 23881461#0 28343758#0 28343758#1 314111997#0 -69966120#5 -69966120#4 -69966120#3 -69966120#2 -69966120#1 -69966120#0 -23971683#4 -23971683#3 -23971683#2 -23971683#1 -23971683#0 -75810137 -75117893 -75117873 -44785747 23971650 23971646#0 23971646#1 23971646#2 151082184 151082190#0 71213419 71213423#2 71213417#0 71213417#1 71213426 160639339 160639318#1 71213423#0"/>
	</vehicle>
	<vehicle_id="110031" depart="1866.30" departLane="best" departSpeed="0.00" fromTaz="1120005" toTaz="1120003" type="POLICEMEN" >
		<route edges="71213423#0 71213418 151082190#2 151082190#3 23971640 44785747 75117873 75117893 75810137 23971683#0 23971683#1 23971683#2 23971683#3 23971683#4 -409076848#2 -409076848#1 -409076848#0 409076847#0 409076847#1 409076847#2 409076847#3 151292466#2"/>
	</vehicle>
	<vehicle_id="110092" depart="1874.58" departLane="best" departSpeed="0.00" fromTaz="1120003" toTaz="1120005" type="POLICEMEN" >