<?xml version="1.0" encoding="UTF-8"?>

<!-- generated on Wed Nov 20 20:02:12 2019 by SUMO duarouter Version 0.27.1
<?xml version="1.0" encoding="UTF-8"?>

<configuration xmlns:xsi="http://www.w3.org/2001/XMLSchema-instance" xsi:noNamespaceSchemaLocation="http://sumo.dlr.de/xsd/duarouterConfiguration.xsd">

    <input>
        <net-file value="alcalahenares_3L3h_Emergency_noTWM_L_01.net.xml"/>
        <trip-files value="alcalahenares_3L3h_Emergency_noTWM_L_01.trip.xml"/>
    </input>

    <output>
        <output-file value="alcalahenares_3L3h_Emergency_noTWM_L_01.routes.xml"/>
    </output>

    <processing>
        <ignore-errors value="true"/>
        <max-alternatives value="10"/>
        <remove-loops value="true"/>
        <repair value="true"/>
        <repair.from value="true"/>
        <repair.to value="true"/>
    </processing>

    <time>
        <begin value="0"/>
        <end value="3600"/>
    </time>

</configuration>
-->

<routes xmlns:xsi="http://www.w3.org/2001/XMLSchema-instance" xsi:noNamespaceSchemaLocation="http://sumo.dlr.de/xsd/routes_file.xsd">
	<vType id="FIREMEN" vClass="bus" emissionClass="HBEFA3/Bus" />
	<vType id="POLICEMEN" vClass="passenger" emissionClass="HBEFA3/PC_G_EU4" />
	<vehicle id="110062" depart="1506.36" departLane="best" departSpeed="0.00" fromTaz="1120003" toTaz="1120006" type="POLICEMEN" >
		<route edges="151292466#0 151292466#1 151292466#2 23881461#0 23881461#1 23881461#2 23881461#3 23881461#4 23881461#5 75117923#0 75117923#1 75117923#2 75117923#3 75117923#4 75117923#5 75117887#0 75117887#1 75117887#2 -75117896 75117905 75126438#0 75126438#1 443446515#0 443446515#1 443446515#2 443446515#3 118195332 409064673 75117863#0 118195344#0 118195344#1 118195344#2 75689698#6 75689698#7 75689698#0 75689698#1 75117890 -106134392#2 -106134392#1 -106134392#0 -106134328 -106134336 106134397#0 106134397#1 23907595#4 23907595#5 23907595#6 23907595#7 23907595#8 23907595#0 41222512#0 41222512#1 75117908#4"/>
	</vehicle>
	<vehicle id="110045" depart="1507.38" departLane="best" departSpeed="0.00" fromTaz="1120003" toTaz="1120005" type="POLICEMEN" >
		<route edges="151292468 151292466#0 151292466#1 151292466#2 23881461#0 28343758#0 28343758#1 314111997#0 -69966120#5 -69966120#4 -69966120#3 -69966120#2 -69966120#1 -69966120#0 -23971683#4 -23971683#3 -23971683#2 -23971683#1 -23971683#0 -75810137 -75117893 -75117873 -44785747 23971650 23971646#0 23971646#1 23971646#2 151082184 151082190#0 71213419 71213423#2 71213417#0 71213417#1 71213426"/>
	</vehicle>
	<vehicle id="110068" depart="1513.56" departLane="best" departSpeed="0.00" fromTaz="1120003" toTaz="1120006" type="POLICEMEN" >
		<route edges="151292466#0 151292466#1 151292466#2 23881461#0 23881461#1 23881461#2 23881461#3 23881461#4 23881461#5 75117923#0 75117923#1 75117923#2 75117923#3 75117923#4 75117923#5 75117887#0 75117887#1 75117887#2 -75117896 75117905 75126438#0 75126438#1 443446515#0 443446515#1 443446515#2 443446515#3 118195332 409064673 75117863#0 118195344#0 118195344#1 118195344#2 75689698#6 75689698#7 75689698#0 75689698#1 75117890 -106134392#2 -106134392#1 -106134392#0 -106134328 -106134336 106134397#0 106134397#1 23907595#4 23907595#5 23907595#6 23907595#7 23907595#8 23907595#0 41222512#0 41222512#1 75117908#4 75117862#0 75117862#1"/>
	</vehicle>
	<vehicle id="110029" depart="1518.13" departLane="best" departSpeed="0.00" fromTaz="1120003" toTaz="1120005" type="POLICEMEN" >
		<route edges="151292466#0 151292466#1 151292466#2 23881461#0 28343758#0 28343758#1 314111997#0 -69966120#5 -69966120#4 -69966120#3 -69966120#2 -69966120#1 -69966120#0 -23971683#4 -23971683#3 -23971683#2 -23971683#1 -23971683#0 -75810137 -75117893 -75117873 -44785747 23971650 23971646#0 23971646#1 23971646#2 151082184 151082190#0 71213419 71213423#2 71213417#0 71213417#1 71213426"/>
	</vehicle>
	<vehicle id="110010" depart="1518.38" departLane="best" departSpeed="0.00" fromTaz="1120003" toTaz="1120005" type="POLICEMEN" >
		<route edges="23867718#1 151292468 151292466#0 151292466#1 151292466#2 23881461#0 28343758#0 28343758#1 314111997#0 -69966120#5 -69966120#4 -69966120#3 -69966120#2 -69966120#1 -69966120#0 -23971683#4 -23971683#3 -23971683#2 -23971683#1 -23971683#0 -75810137 -75117893 -75117873 -44785747 23971650 23971646#0 23971646#1 23971646#2 151082184 151082190#0 71213419 71213423#2 71213417#0 71213417#1 71213426 160639339"/>
	</vehicle>
	<vehicle id="110059" depart="1527.48" departLane="best" departSpeed="0.00" fromTaz="1120003" toTaz="1120006" type="POLICEMEN" >
		<route edges="151292466#1 151292466#2 23881461#0 23881461#1 23881461#2 23881461#3 23881461#4 23881461#5 75117923#0 75117923#1 75117923#2 75117923#3 75117923#4 75117923#5 75117887#0 75117887#1 75117887#2 -75117896 75117905 75126438#0 75126438#1 443446515#0 443446515#1 443446515#2 443446515#3 118195332 409064673 75117863#0 118195344#0 118195344#1 118195344#2 75689698#6 75689698#7 75689698#0 75689698#1 75117890 -106134392#2 -106134392#1 -106134392#0 -106134328 -106134336 106134397#0 106134397#1 23907595#4 23907595#5 23907595#6 106134314#0 106134314#1 -75117846 -75117881#1 -75117921#1 -75117862#1"/>
	</vehicle>
	<vehicle id="110083" depart="1530.86" departLane="best" departSpeed="0.00" fromTaz="1120003" toTaz="1120006" type="POLICEMEN" >
		<route edges="151292466#1 151292466#2 23881461#0 23881461#1 23881461#2 23881461#3 23881461#4 23881461#5 75117923#0 75117923#1 75117923#2 75117923#3 75117923#4 75117923#5 75117887#0 75117887#1 75117887#2 -75117896 75117905 75126438#0 75126438#1 443446515#0 443446515#1 443446515#2 443446515#3 118195332 409064673 75117863#0 118195344#0 118195344#1 118195344#2 75689698#6 75689698#7 75689698#0 75689698#1 75117890 -106134392#2 -106134392#1 -106134392#0 -106134328 -106134336 106134397#0 106134397#1 23907595#4 23907595#5 23907595#6 23907595#7 23907595#8 23907595#0 41222512#0 41222512#1 75117908#4 75117908#5"/>
	</vehicle>
	<vehicle id="110023" depart="1535.86" departLane="best" departSpeed="0.00" fromTaz="1120003" toTaz="1120005" type="FIREMEN" >
		<route edges="151292466#1 151292466#2 23881461#0 28343758#0 28343758#1 314111997#0 -69966120#5 -69966120#4 -69966120#3 -69966120#2 -69966120#1 -69966120#0 -23971683#4 -23971683#3 -23971683#2 -23971683#1 -23971683#0 -75810137 -75117893 -75117873 -44785747 23971650 23971646#0 23971646#1 23971646#2 151082184 151082190#0 71213419 71213423#2 71213417#0 71213417#1 71213426 160639339"/>
	</vehicle>
	<vehicle id="110012" depart="1537.69" departLane="best" departSpeed="0.00" fromTaz="1120003" toTaz="1120005" type="FIREMEN" >
		<route edges="151292466#1 151292466#2 23881461#0 28343758#0 28343758#1 314111997#0 -69966120#5 -69966120#4 -69966120#3 -69966120#2 -69966120#1 -69966120#0 -23971683#4 -23971683#3 -23971683#2 -23971683#1 -23971683#0 -75810137 -75117893 -75117873 -44785747 23971650 23971646#0 23971646#1 23971646#2 151082184 151082190#0 71213419 71213423#2 71213417#0 71213417#1 71213426 160639339"/>
	</vehicle>
	<vehicle id="110076" depart="1542.16" departLane="best" departSpeed="0.00" fromTaz="1120003" toTaz="1120006" type="POLICEMEN" >
		<route edges="409076847#3 151292466#2 23881461#0 23881461#1 23881461#2 23881461#3 23881461#4 23881461#5 75117923#0 75117923#1 75117923#2 75117923#3 75117923#4 75117923#5 75117887#0 75117887#1 75117887#2 -75117896 75117905 75126438#0 75126438#1 443446515#0 443446515#1 443446515#2 443446515#3 118195332 409064673 75117863#0 118195344#0 118195344#1 118195344#2 75689698#6 75689698#7 75689698#0 75689698#1 75117890 -106134392#2 -106134392#1 -106134392#0 -106134328 -106134336 106134397#0 106134397#1 23907595#4 23907595#5 23907595#6 106134314#0 106134314#1 -75117846 -75117881#1 -75117921#1 -75117862#1"/>
	</vehicle>
	<vehicle id="110006" depart="1555.65" departLane="best" departSpeed="0.00" fromTaz="1120003" toTaz="1120005" type="POLICEMEN" >
		<route edges="151292466#0 151292466#1 151292466#2 23881461#0 28343758#0 28343758#1 314111997#0 -69966120#5 -69966120#4 -69966120#3 -69966120#2 -69966120#1 -69966120#0 -23971683#4 -23971683#3 -23971683#2 -23971683#1 -23971683#0 -75810137 -75117893 -75117873 -44785747 23971650 23971646#0 23971646#1 23971646#2 151082184 151082190#0 71213419 71213423#2 71213417#0 71213417#1 71213426 160639339 160639318#1 71213423#0"/>
	</vehicle>
	<vehicle id="110050" depart="1557.85" departLane="best" departSpeed="0.00" fromTaz="1120003" toTaz="1120006" type="FIREMEN" >
		<route edges="151292468 151292466#0 151292466#1 151292466#2 23881461#0 23881461#1 23881461#2 23881461#3 23881461#4 23881461#5 75117923#0 75117923#1 75117923#2 75117923#3 75117923#4 75117923#5 75117887#0 75117887#1 75117887#2 -75117896 75117905 75126438#0 75126438#1 443446515#0 443446515#1 443446515#2 443446515#3 118195332 409064673 75117863#0 118195344#0 118195344#1 118195344#2 75689698#6 75689698#7 75689698#0 75689698#1 75117890 -106134392#2 -106134392#1 -106134392#0 -106134328 -106134336 106134397#0 106134397#1 23907595#4 23907595#5 23907595#6 23907595#7 23907595#8 23907595#0 41222512#0 41222512#1 75117908#4 75117908#5"/>
	</vehicle>
	<vehicle id="110082" depart="1567.68" departLane="best" departSpeed="0.00" fromTaz="1120003" toTaz="1120006" type="FIREMEN" >
		<route edges="151292466#1 151292466#2 23881461#0 23881461#1 23881461#2 23881461#3 23881461#4 23881461#5 75117923#0 75117923#1 75117923#2 75117923#3 75117923#4 75117923#5 75117887#0 75117887#1 75117887#2 -75117896 75117905 75126438#0 75126438#1 443446515#0 443446515#1 443446515#2 443446515#3 118195332 409064673 75117863#0 118195344#0 118195344#1 118195344#2 75689698#6 75689698#7 75689698#0 75689698#1 75117890 -106134392#2 -106134392#1 -106134392#0 -106134328 -106134336 106134397#0 106134397#1 23907595#4 23907595#5 23907595#6 106134314#0 106134314#1 -75117846 -75117881#1 -75117921#1 -75117862#1"/>
	</vehicle>
	<vehicle id="110066" depart="1580.26" departLane="best" departSpeed="0.00" fromTaz="1120003" toTaz="1120006" type="POLICEMEN" >
		<route edges="23859062#0 23859062#1 23859062#2 23859062#3 254899431#0 32900520#0 409076847#1 409076847#2 409076847#3 151292466#2 23881461#0 23881461#1 23881461#2 23881461#3 23881461#4 23881461#5 75117923#0 75117923#1 75117923#2 75117923#3 75117923#4 75117923#5 75117887#0 75117887#1 75117887#2 -75117896 75117905 75126438#0 75126438#1 443446515#0 443446515#1 443446515#2 443446515#3 118195332 409064673 75117863#0 118195344#0 118195344#1 118195344#2 75689698#6 75689698#7 75689698#0 75689698#1 75117890 -106134392#2 -106134392#1 -106134392#0 -106134328 -106134336 106134397#0 106134397#1 23907595#4 23907595#5 23907595#6 106134314#0 106134314#1 -75117846 -75117881#1 -75117921#1 -75117862#1"/>
	</vehicle>
	<vehicle id="110054" depart="1582.19" departLane="best" departSpeed="0.00" fromTaz="1120003" toTaz="1120006" type="POLICEMEN" >
		<route edges="151292466#2 23881461#0 23881461#1 23881461#2 23881461#3 23881461#4 23881461#5 75117923#0 75117923#1 75117923#2 75117923#3 75117923#4 75117923#5 75117887#0 75117887#1 75117887#2 -75117896 75117905 75126438#0 75126438#1 443446515#0 443446515#1 443446515#2 443446515#3 118195332 409064673 75117863#0 118195344#0 118195344#1 118195344#2 75689698#6 75689698#7 75689698#0 75689698#1 75117890 -106134392#2 -106134392#1 -106134392#0 -106134328 -106134336 106134397#0 106134397#1 23907595#4 23907595#5 23907595#6 23907595#7 23907595#8 23907595#0 41222512#0 41222512#1 75117908#4"/>
	</vehicle>
	<vehicle id="110097" depart="1589.60" departLane="best" departSpeed="0.00" fromTaz="1120003" toTaz="1120006" type="POLICEMEN" >
		<route edges="409076847#3 151292466#2 23881461#0 23881461#1 23881461#2 23881461#3 23881461#4 23881461#5 75117923#0 75117923#1 75117923#2 75117923#3 75117923#4 75117923#5 75117887#0 75117887#1 75117887#2 -75117896 75117905 75126438#0 75126438#1 443446515#0 443446515#1 443446515#2 443446515#3 118195332 409064673 75117863#0 118195344#0 118195344#1 118195344#2 75689698#6 75689698#7 75689698#0 75689698#1 75117890 -106134392#2 -106134392#1 -106134392#0 -106134328 -106134336 106134397#0 106134397#1 23907595#4 23907595#5 23907595#6 23907595#7 23907595#8 23907595#0 41222512#0 41222512#1 75117908#4 75117908#5"/>
	</vehicle>
	<vehicle id="110090" depart="1600.72" departLane="best" departSpeed="0.00" fromTaz="1120003" toTaz="1120006" type="FIREMEN" >
		<route edges="23859062#0 23859062#1 23859062#2 23859062#3 254899431#0 32900520#0 409076847#1 409076847#2 409076847#3 151292466#2 23881461#0 23881461#1 23881461#2 23881461#3 23881461#4 23881461#5 75117923#0 75117923#1 75117923#2 75117923#3 75117923#4 75117923#5 75117887#0 75117887#1 75117887#2 -75117896 75117905 75126438#0 75126438#1 443446515#0 443446515#1 443446515#2 443446515#3 118195332 409064673 75117863#0 118195344#0 118195344#1 118195344#2 75689698#6 75689698#7 75689698#0 75689698#1 75117890 -106134392#2 -106134392#1 -106134392#0 -106134328 -106134336 106134397#0 106134397#1 23907595#4 23907595#5 23907595#6 23907595#7 23907595#8 23907595#0 41222512#0 41222512#1 75117908#4 75117862#0"/>
	</vehicle>
	<vehicle id="110046" depart="1601.67" departLane="best" departSpeed="0.00" fromTaz="1120003" toTaz="1120005" type="POLICEMEN" >
		<route edges="151292466#2 23881461#0 28343758#0 28343758#1 314111997#0 -69966120#5 -69966120#4 -69966120#3 -69966120#2 -69966120#1 -69966120#0 -23971683#4 -23971683#3 -23971683#2 -23971683#1 -23971683#0 -75810137 -75117893 -75117873 -44785747 23971650 23971646#0 23971646#1 23971646#2 151082184 151082190#0 71213419 71213423#2"/>
	</vehicle>
	<vehicle id="110073" depart="1606.81" departLane="best" departSpeed="0.00" fromTaz="1120003" toTaz="1120006" type="POLICEMEN" >
		<route edges="23867718#1 151292468 151292466#0 151292466#1 151292466#2 23881461#0 23881461#1 23881461#2 23881461#3 23881461#4 23881461#5 75117923#0 75117923#1 75117923#2 75117923#3 75117923#4 75117923#5 75117887#0 75117887#1 75117887#2 -75117896 75117905 75126438#0 75126438#1 443446515#0 443446515#1 443446515#2 443446515#3 118195332 409064673 75117863#0 118195344#0 118195344#1 118195344#2 75689698#6 75689698#7 75689698#0 75689698#1 75117890 -106134392#2 -106134392#1 -106134392#0 -106134328 -106134336 106134397#0 106134397#1 23907595#4 23907595#5 23907595#6 106134314#0 106134314#1 -75117846 -75117881#1 -75117921#1 -75117862#1"/>
	</vehicle>
	<vehicle id="110053" depart="1608.52" departLane="best" departSpeed="0.00" fromTaz="1120003" toTaz="1120006" type="FIREMEN" >
		<route edges="151292468 151292466#0 151292466#1 151292466#2 23881461#0 23881461#1 23881461#2 23881461#3 23881461#4 23881461#5 75117923#0 75117923#1 75117923#2 75117923#3 75117923#4 75117923#5 75117887#0 75117887#1 75117887#2 -75117896 75117905 75126438#0 75126438#1 443446515#0 443446515#1 443446515#2 443446515#3 118195332 409064673 75117863#0 118195344#0 118195344#1 118195344#2 75689698#6 75689698#7 75689698#0 75689698#1 75117890 -106134392#2 -106134392#1 -106134392#0 -106134328 -106134336 106134397#0 106134397#1 23907595#4 23907595#5 23907595#6 106134314#0 106134314#1 -75117846 -75117881#1 -75117921#1 -75117862#1"/>
	</vehicle>
	<vehicle id="110039" depart="1622.15" departLane="best" departSpeed="0.00" fromTaz="1120003" toTaz="1120005" type="FIREMEN" >
		<route edges="151292466#1 151292466#2 23881461#0 28343758#0 28343758#1 314111997#0 -69966120#5 -69966120#4 -69966120#3 -69966120#2 -69966120#1 -69966120#0 -23971683#4 -23971683#3 -23971683#2 -23971683#1 -23971683#0 -75810137 -75117893 -75117873 -44785747 23971650 23971646#0 23971646#1 23971646#2 151082184 151082190#0 71213419 71213423#2 71213417#0 71213417#1 71213426"/>
	</vehicle>
	<vehicle id="110037" depart="1625.46" departLane="best" departSpeed="0.00" fromTaz="1120003" toTaz="1120005" type="FIREMEN" >
		<route edges="151292468 151292466#0 151292466#1 151292466#2 23881461#0 28343758#0 28343758#1 314111997#0 -69966120#5 -69966120#4 -69966120#3 -69966120#2 -69966120#1 -69966120#0 -23971683#4 -23971683#3 -23971683#2 -23971683#1 -23971683#0 -75810137 -75117893 -75117873 -44785747 23971650 23971646#0 23971646#1 23971646#2 151082184 151082190#0 71213419 71213423#2 71213417#0 71213417#1 71213426 160639339 160639318#1"/>
	</vehicle>
	<vehicle id="110094" depart="1634.91" departLane="best" departSpeed="0.00" fromTaz="1120003" toTaz="1120006" type="FIREMEN" >
		<route edges="151292466#0 151292466#1 151292466#2 23881461#0 23881461#1 23881461#2 23881461#3 23881461#4 23881461#5 75117923#0 75117923#1 75117923#2 75117923#3 75117923#4 75117923#5 75117887#0 75117887#1 75117887#2 -75117896 75117905 75126438#0 75126438#1 443446515#0 443446515#1 443446515#2 443446515#3 118195332 409064673 75117863#0 118195344#0 118195344#1 118195344#2 75689698#6 75689698#7 75689698#0 75689698#1 75117890 -106134392#2 -106134392#1 -106134392#0 -106134328 -106134336 106134397#0 106134397#1 23907595#4 23907595#5 23907595#6 23907595#7 23907595#8 23907595#0 41222512#0 41222512#1 75117908#4 75117862#0"/>
	</vehicle>
	<vehicle id="110060" depart="1636.13" departLane="best" departSpeed="0.00" fromTaz="1120003" toTaz="1120006" type="FIREMEN" >
		<route edges="151292466#1 151292466#2 23881461#0 23881461#1 23881461#2 23881461#3 23881461#4 23881461#5 75117923#0 75117923#1 75117923#2 75117923#3 75117923#4 75117923#5 75117887#0 75117887#1 75117887#2 -75117896 75117905 75126438#0 75126438#1 443446515#0 443446515#1 443446515#2 443446515#3 118195332 409064673 75117863#0 118195344#0 118195344#1 118195344#2 75689698#6 75689698#7 75689698#0 75689698#1 75117890 -106134392#2 -106134392#1 -106134392#0 -106134328 -106134336 106134397#0 106134397#1 23907595#4 23907595#5 23907595#6 23907595#7 23907595#8 23907595#0 41222512#0 41222512#1 75117908#4 75117908#5"/>
	</vehicle>
	<vehicle id="110020" depart="1642.39" departLane="best" departSpeed="0.00" fromTaz="1120003" toTaz="1120005" type="POLICEMEN" >
		<route edges="23859062#0 23859062#1 23859062#2 23859062#3 254899431#0 32900520#0 32900520#1 32900520#2 -69966120#2 -69966120#1 -69966120#0 -23971683#4 -23971683#3 -23971683#2 -23971683#1 -23971683#0 -75810137 -75117893 -75117873 -44785747 23971650 23971646#0 23971646#1 23971646#2 151082184 151082190#0 71213419 71213423#2 71213417#0 71213417#1 71213426"/>
	</vehicle>
	<vehicle id="110071" depart="1642.95" departLane="best" departSpeed="0.00" fromTaz="1120003" toTaz="1120006" type="POLICEMEN" >
		<route edges="151292466#1 151292466#2 23881461#0 23881461#1 23881461#2 23881461#3 23881461#4 23881461#5 75117923#0 75117923#1 75117923#2 75117923#3 75117923#4 75117923#5 75117887#0 75117887#1 75117887#2 -75117896 75117905 75126438#0 75126438#1 443446515#0 443446515#1 443446515#2 443446515#3 118195332 409064673 75117863#0 118195344#0 118195344#1 118195344#2 75689698#6 75689698#7 75689698#0 75689698#1 75117890 -106134392#2 -106134392#1 -106134392#0 -106134328 -106134336 106134397#0 106134397#1 23907595#4 23907595#5 23907595#6 23907595#7 23907595#8 23907595#0 41222512#0 41222512#1 75117908#4 75117862#0"/>
	</vehicle>
	<vehicle id="110016" depart="1651.17" departLane="best" departSpeed="0.00" fromTaz="1120003" toTaz="1120005" type="POLICEMEN" >
		<route edges="151292466#2 23881461#0 28343758#0 28343758#1 314111997#0 -69966120#5 -69966120#4 -69966120#3 -69966120#2 -69966120#1 -69966120#0 -23971683#4 -23971683#3 -23971683#2 -23971683#1 -23971683#0 -75810137 -75117893 -75117873 -44785747 23971650 23971646#0 23971646#1 23971646#2 151082184 151082190#0 71213419 71213423#2 71213417#0 71213417#1 71213426"/>
	</vehicle>
	<vehicle id="110058" depart="1655.65" departLane="best" departSpeed="0.00" fromTaz="1120003" toTaz="1120006" type="FIREMEN" >
		<route edges="151292466#2 23881461#0 23881461#1 23881461#2 23881461#3 23881461#4 23881461#5 75117923#0 75117923#1 75117923#2 75117923#3 75117923#4 75117923#5 75117887#0 75117887#1 75117887#2 -75117896 75117905 75126438#0 75126438#1 443446515#0 443446515#1 443446515#2 443446515#3 118195332 409064673 75117863#0 118195344#0 118195344#1 118195344#2 75689698#6 75689698#7 75689698#0 75689698#1 75117890 -106134392#2 -106134392#1 -106134392#0 -106134328 -106134336 106134397#0 106134397#1 23907595#4 23907595#5 23907595#6 23907595#7 23907595#8 23907595#0 41222512#0 41222512#1 75117908#4 75117908#5"/>
	</vehicle>
	<vehicle id="110038" depart="1658.69" departLane="best" departSpeed="0.00" fromTaz="1120003" toTaz="1120005" type="FIREMEN" >
		<route edges="151292466#2 23881461#0 28343758#0 28343758#1 314111997#0 -69966120#5 -69966120#4 -69966120#3 -69966120#2 -69966120#1 -69966120#0 -23971683#4 -23971683#3 -23971683#2 -23971683#1 -23971683#0 -75810137 -75117893 -75117873 -44785747 23971650 23971646#0 23971646#1 23971646#2 151082184 151082190#0 71213419 71213423#2 71213417#0 71213417#1 71213426"/>
	</vehicle>
	<vehicle id="110019" depart="1663.02" departLane="best" departSpeed="0.00" fromTaz="1120003" toTaz="1120005" type="FIREMEN" >
		<route edges="151292466#1 151292466#2 23881461#0 28343758#0 28343758#1 314111997#0 -69966120#5 -69966120#4 -69966120#3 -69966120#2 -69966120#1 -69966120#0 -23971683#4 -23971683#3 -23971683#2 -23971683#1 -23971683#0 -75810137 -75117893 -75117873 -44785747 23971650 23971646#0 23971646#1 23971646#2 151082184 151082190#0 71213419 71213423#2 71213417#0 71213417#1 71213426 160639339 160639318#1"/>
	</vehicle>
	<vehicle id="110061" depart="1669.47" departLane="best" departSpeed="0.00" fromTaz="1120003" toTaz="1120006" type="FIREMEN" >
		<route edges="151292468 151292466#0 151292466#1 151292466#2 23881461#0 23881461#1 23881461#2 23881461#3 23881461#4 23881461#5 75117923#0 75117923#1 75117923#2 75117923#3 75117923#4 75117923#5 75117887#0 75117887#1 75117887#2 -75117896 75117905 75126438#0 75126438#1 443446515#0 443446515#1 443446515#2 443446515#3 118195332 409064673 75117863#0 118195344#0 118195344#1 118195344#2 75689698#6 75689698#7 75689698#0 75689698#1 75117890 -106134392#2 -106134392#1 -106134392#0 -106134328 -106134336 106134397#0 106134397#1 23907595#4 23907595#5 23907595#6 23907595#7 23907595#8 23907595#0 41222512#0 41222512#1 75117908#4 75117862#0"/>
	</vehicle>
	<vehicle id="110096" depart="1674.42" departLane="best" departSpeed="0.00" fromTaz="1120003" toTaz="1120006" type="FIREMEN" >
		<route edges="23867718#1 151292468 151292466#0 151292466#1 151292466#2 23881461#0 23881461#1 23881461#2 23881461#3 23881461#4 23881461#5 75117923#0 75117923#1 75117923#2 75117923#3 75117923#4 75117923#5 75117887#0 75117887#1 75117887#2 -75117896 75117905 75126438#0 75126438#1 443446515#0 443446515#1 443446515#2 443446515#3 118195332 409064673 75117863#0 118195344#0 118195344#1 118195344#2 75689698#6 75689698#7 75689698#0 75689698#1 75117890 -106134392#2 -106134392#1 -106134392#0 -106134328 -106134336 106134397#0 106134397#1 23907595#4 23907595#5 23907595#6 23907595#7 23907595#8 23907595#0 41222512#0 41222512#1 75117908#4 75117862#0"/>
	</vehicle>
	<vehicle id="110011" depart="1703.31" departLane="best" departSpeed="0.00" fromTaz="1120003" toTaz="1120005" type="POLICEMEN" >
		<route edges="151292466#0 151292466#1 151292466#2 23881461#0 28343758#0 28343758#1 314111997#0 -69966120#5 -69966120#4 -69966120#3 -69966120#2 -69966120#1 -69966120#0 -23971683#4 -23971683#3 -23971683#2 -23971683#1 -23971683#0 -75810137 -75117893 -75117873 -44785747 23971650 23971646#0 23971646#1 23971646#2 151082184 151082190#0 71213419 71213423#2"/>
	</vehicle>
	<vehicle id="110084" depart="1709.51" departLane="best" departSpeed="0.00" fromTaz="1120003" toTaz="1120006" type="POLICEMEN" >
		<route edges="151292466#2 23881461#0 23881461#1 23881461#2 23881461#3 23881461#4 23881461#5 75117923#0 75117923#1 75117923#2 75117923#3 75117923#4 75117923#5 75117887#0 75117887#1 75117887#2 -75117896 75117905 75126438#0 75126438#1 443446515#0 443446515#1 443446515#2 443446515#3 118195332 409064673 75117863#0 118195344#0 118195344#1 118195344#2 75689698#6 75689698#7 75689698#0 75689698#1 75117890 -106134392#2 -106134392#1 -106134392#0 -106134328 -106134336 106134397#0 106134397#1 23907595#4 23907595#5 23907595#6 23907595#7 23907595#8 23907595#0 41222512#0 41222512#1 75117908#4 75117862#0"/>
	</vehicle>
	<vehicle id="110074" depart="1735.89" departLane="best" departSpeed="0.00" fromTaz="1120003" toTaz="1120006" type="FIREMEN" >
		<route edges="151292466#0 151292466#1 151292466#2 23881461#0 23881461#1 23881461#2 23881461#3 23881461#4 23881461#5 75117923#0 75117923#1 75117923#2 75117923#3 75117923#4 75117923#5 75117887#0 75117887#1 75117887#2 -75117896 75117905 75126438#0 75126438#1 443446515#0 443446515#1 443446515#2 443446515#3 118195332 409064673 75117863#0 118195344#0 118195344#1 118195344#2 75689698#6 75689698#7 75689698#0 75689698#1 75117890 -106134392#2 -106134392#1 -106134392#0 -106134328 -106134336 106134397#0 106134397#1 23907595#4 23907595#5 23907595#6 106134314#0 106134314#1 -75117846 -75117881#1 -75117921#1 -75117862#1"/>
	</vehicle>
	<vehicle id="110031" depart="1735.96" departLane="best" departSpeed="0.00" fromTaz="1120003" toTaz="1120005" type="FIREMEN" >
		<route edges="151292468 151292466#0 151292466#1 151292466#2 23881461#0 28343758#0 28343758#1 314111997#0 -69966120#5 -69966120#4 -69966120#3 -69966120#2 -69966120#1 -69966120#0 -23971683#4 -23971683#3 -23971683#2 -23971683#1 -23971683#0 -75810137 -75117893 -75117873 -44785747 23971650 23971646#0 23971646#1 23971646#2 151082184 151082190#0 71213419 71213423#2"/>
	</vehicle>
	<vehicle id="110087" depart="1763.89" departLane="best" departSpeed="0.00" fromTaz="1120003" toTaz="1120006" type="POLICEMEN" >
		<route edges="151292466#0 151292466#1 151292466#2 23881461#0 23881461#1 23881461#2 23881461#3 23881461#4 23881461#5 75117923#0 75117923#1 75117923#2 75117923#3 75117923#4 75117923#5 75117887#0 75117887#1 75117887#2 -75117896 75117905 75126438#0 75126438#1 443446515#0 443446515#1 443446515#2 443446515#3 118195332 409064673 75117863#0 118195344#0 118195344#1 118195344#2 75689698#6 75689698#7 75689698#0 75689698#1 75117890 -106134392#2 -106134392#1 -106134392#0 -106134328 -106134336 106134397#0 106134397#1 23907595#4 23907595#5 23907595#6 23907595#7 23907595#8 23907595#0 41222512#0 41222512#1 75117908#4 75117862#0 75117862#1"/>
	</vehicle>
	<vehicle id="110089" depart="1776.26" departLane="best" departSpeed="0.00" fromTaz="1120003" toTaz="1120006" type="FIREMEN" >
		<route edges="409076847#3 151292466#2 23881461#0 23881461#1 23881461#2 23881461#3 23881461#4 23881461#5 75117923#0 75117923#1 75117923#2 75117923#3 75117923#4 75117923#5 75117887#0 75117887#1 75117887#2 -75117896 75117905 75126438#0 75126438#1 443446515#0 443446515#1 443446515#2 443446515#3 118195332 409064673 75117863#0 118195344#0 118195344#1 118195344#2 75689698#6 75689698#7 75689698#0 75689698#1 75117890 -106134392#2 -106134392#1 -106134392#0 -106134328 -106134336 106134397#0 106134397#1 23907595#4 23907595#5 23907595#6 106134314#0 106134314#1 -75117846 -75117881#1 -75117921#1 -75117862#1"/>
	</vehicle>
	<vehicle id="110075" depart="1789.55" departLane="best" departSpeed="0.00" fromTaz="1120003" toTaz="1120006" type="FIREMEN" >
		<route edges="151292466#0 151292466#1 151292466#2 23881461#0 23881461#1 23881461#2 23881461#3 23881461#4 23881461#5 75117923#0 75117923#1 75117923#2 75117923#3 75117923#4 75117923#5 75117887#0 75117887#1 75117887#2 -75117896 75117905 75126438#0 75126438#1 443446515#0 443446515#1 443446515#2 443446515#3 118195332 409064673 75117863#0 118195344#0 118195344#1 118195344#2 75689698#6 75689698#7 75689698#0 75689698#1 75117890 -106134392#2 -106134392#1 -106134392#0 -106134328 -106134336 106134397#0 106134397#1 23907595#4 23907595#5 23907595#6 23907595#7 23907595#8 23907595#0 41222512#0 41222512#1 75117908#4 75117862#0"/>
	</vehicle>
	<vehicle id="110081" depart="1804.23" departLane="best" departSpeed="0.00" fromTaz="1120003" toTaz="1120006" type="POLICEMEN" >
		<route edges="409076847#3 151292466#2 23881461#0 23881461#1 23881461#2 23881461#3 23881461#4 23881461#5 75117923#0 75117923#1 75117923#2 75117923#3 75117923#4 75117923#5 75117887#0 75117887#1 75117887#2 -75117896 75117905 75126438#0 75126438#1 443446515#0 443446515#1 443446515#2 443446515#3 118195332 409064673 75117863#0 118195344#0 118195344#1 118195344#2 75689698#6 75689698#7 75689698#0 75689698#1 75117890 -106134392#2 -106134392#1 -106134392#0 -106134328 -106134336 106134397#0 106134397#1 23907595#4 23907595#5 23907595#6 106134314#0 106134314#1 -75117846 -75117881#1 -75117921#1 -75117862#1"/>
	</vehicle>
	<vehicle id="110047" depart="1805.79" departLane="best" departSpeed="0.00" fromTaz="1120003" toTaz="1120005" type="POLICEMEN" >
		<route edges="151292466#2 23881461#0 28343758#0 28343758#1 314111997#0 -69966120#5 -69966120#4 -69966120#3 -69966120#2 -69966120#1 -69966120#0 -23971683#4 -23971683#3 -23971683#2 -23971683#1 -23971683#0 -75810137 -75117893 -75117873 -44785747 23971650 23971646#0 23971646#1 23971646#2 151082184 151082190#0 71213419 71213423#2 71213417#0 71213417#1 71213426 160639339 160639318#1"/>
	</vehicle>
	<vehicle id="110070" depart="1808.16" departLane="best" departSpeed="0.00" fromTaz="1120003" toTaz="1120006" type="POLICEMEN" >
		<route edges="151292466#1 151292466#2 23881461#0 23881461#1 23881461#2 23881461#3 23881461#4 23881461#5 75117923#0 75117923#1 75117923#2 75117923#3 75117923#4 75117923#5 75117887#0 75117887#1 75117887#2 -75117896 75117905 75126438#0 75126438#1 443446515#0 443446515#1 443446515#2 443446515#3 118195332 409064673 75117863#0 118195344#0 118195344#1 118195344#2 75689698#6 75689698#7 75689698#0 75689698#1 75117890 -106134392#2 -106134392#1 -106134392#0 -106134328 -106134336 106134397#0 106134397#1 23907595#4 23907595#5 23907595#6 23907595#7 23907595#8 23907595#0 41222512#0 41222512#1 75117908#4 75117908#5"/>
	</vehicle>
	<vehicle id="110085" depart="1810.25" departLane="best" departSpeed="0.00" fromTaz="1120003" toTaz="1120006" type="POLICEMEN" >