<?xml version="1.0" encoding="UTF-8"?>

<!-- generated on Wed Nov 20 20:00:03 2019 by SUMO duarouter Version 0.27.1
<?xml version="1.0" encoding="UTF-8"?>

<configuration xmlns:xsi="http://www.w3.org/2001/XMLSchema-instance" xsi:noNamespaceSchemaLocation="http://sumo.dlr.de/xsd/duarouterConfiguration.xsd">

    <input>
        <net-file value="alcalahenares_3L3h_Emergency_noTWM_L_01.net.xml"/>
        <trip-files value="alcalahenares_3L3h_Emergency_noTWM_L_01.trip.xml"/>
    </input>

    <output>
        <output-file value="alcalahenares_3L3h_Emergency_noTWM_L_01.routes.xml"/>
    </output>

    <processing>
        <ignore-errors value="true"/>
        <max-alternatives value="10"/>
        <remove-loops value="true"/>
        <repair value="true"/>
        <repair.from value="true"/>
        <repair.to value="true"/>
    </processing>

    <time>
        <begin value="0"/>
        <end value="3600"/>
    </time>

</configuration>
-->

<routes xmlns:xsi="http://www.w3.org/2001/XMLSchema-instance" xsi:noNamespaceSchemaLocation="http://sumo.dlr.de/xsd/routes_file.xsd">
	<vType id="FIREMEN" vClass="bus" emissionClass="HBEFA3/Bus" />
	<vType id="POLICEMEN" vClass="passenger" emissionClass="HBEFA3/PC_G_EU4" />
	<vehicle id="100081" depart="603.84" departLane="best" departSpeed="0.00" fromTaz="1120006" toTaz="1120003" type="FIREMEN" >
		<route edges="-75117862#0 75117908#5 75117908#6 75117908#0 75117908#1 75117908#2 75117830#0 75117830#1 23907595#2 75117838 106134336 106134328 106134392#0 106134392#1 106134392#2 75117855 75689698#3 75689698#4 75117872 75117863#2 409064668#0 409064668#1 409064668#2 409064668#3 118195341 -443446515#3 -443446515#2 -443446515#1 -443446515#0 -75126438#1 -75126438#0 -75117905 75117896 -75117887#2 -75117887#1 -75117887#0 -75117923#5 -75117923#4 -75117923#3 -75117923#2 -75117923#1 -75117923#0 -23881461#5 -23881461#4 -23881461#3 -23881461#2 -23881461#1 -23881461#0 23867718#0 23867718#1 151292468 151292466#0 151292466#1"/>
	</vehicle>
	<vehicle id="100044" depart="607.38" departLane="best" departSpeed="0.00" fromTaz="1120005" toTaz="1120003" type="POLICEMEN" >
		<route edges="71213417#1 71213426 160639339 160639318#1 71213423#0 71213418 151082190#2 151082190#3 23971640 44785747 75117873 75117893 75810137 23971683#0 23971683#1 23971683#2 23971683#3 23971683#4 -409076848#2 -409076848#1 -409076848#0 409076847#0 409076847#1 409076847#2 409076847#3"/>
	</vehicle>
	<vehicle id="100029" depart="619.60" departLane="best" departSpeed="0.00" fromTaz="1120005" toTaz="1120003" type="POLICEMEN" >
		<route edges="71213417#1 71213426 160639339 160639318#1 71213423#0 71213418 151082190#2 151082190#3 23971640 44785747 75117873 75117893 75810137 23971683#0 23971683#1 23971683#2 23971683#3 23971683#4 -409076848#2 -409076848#1 -409076848#0 409076847#0 409076847#1 409076847#2 409076847#3 151292466#2 23867718#0"/>
	</vehicle>
	<vehicle id="100019" depart="625.67" departLane="best" departSpeed="0.00" fromTaz="1120005" toTaz="1120003" type="POLICEMEN" >
		<route edges="71213417#0 71213417#1 71213426 160639339 160639318#1 71213423#0 71213418 151082190#2 151082190#3 23971640 44785747 75117873 75117893 75810137 23971683#0 23971683#1 23971683#2 23971683#3 23971683#4 -409076848#2 -409076848#1 -409076848#0 409076847#0 409076847#1 409076847#2 409076847#3 151292466#2 23867718#0 23867718#1 151292468 151292466#0 23859062#0"/>
	</vehicle>
	<vehicle id="100058" depart="627.48" departLane="best" departSpeed="0.00" fromTaz="1120006" toTaz="1120003" type="FIREMEN" >
		<route edges="-75117862#1 -75117862#0 75117908#5 75117908#6 75117908#0 75117908#1 75117908#2 75117830#0 75117830#1 23907595#2 75117838 106134336 106134328 106134392#0 106134392#1 106134392#2 75117855 75689698#3 75689698#4 75117872 75117863#2 409064668#0 409064668#1 409064668#2 409064668#3 118195341 -443446515#3 -443446515#2 -443446515#1 -443446515#0 -75126438#1 -75126438#0 -75117905 75117896 -75117887#2 -75117887#1 -75117887#0 -75117923#5 -75117923#4 -75117923#3 -75117923#2 -75117923#1 -75117923#0 -23881461#5 -23881461#4 -23881461#3 -23881461#2 -23881461#1 -23881461#0 23867718#0 23867718#1 151292468 151292466#0 151292466#1"/>
	</vehicle>
	<vehicle id="100042" depart="641.55" departLane="best" departSpeed="0.00" fromTaz="1120005" toTaz="1120003" type="FIREMEN" >
		<route edges="71213423#2 71213417#0 71213417#1 71213426 160639339 160639318#1 71213423#0 71213418 151082190#2 151082190#3 23971640 44785747 75117873 75117893 75810137 23971683#0 23971683#1 23971683#2 23971683#3 23971683#4 -409076848#2 -409076848#1 -409076848#0 409076847#0 409076847#1 409076847#2 409076847#3"/>
	</vehicle>
	<vehicle id="100049" depart="657.85" departLane="best" departSpeed="0.00" fromTaz="1120005" toTaz="1120003" type="POLICEMEN" >
		<route edges="71213417#1 71213426 160639339 160639318#1 71213423#0 71213418 151082190#2 151082190#3 23971640 44785747 75117873 75117893 75810137 23971683#0 23971683#1 23971683#2 23971683#3 23971683#4 -409076848#2 -409076848#1 -409076848#0 409076847#0 409076847#1 409076847#2 409076847#3"/>
	</vehicle>
	<vehicle id="100033" depart="672.60" departLane="best" departSpeed="0.00" fromTaz="1120005" toTaz="1120003" type="POLICEMEN" >
		<route edges="71213423#0 71213418 151082190#2 151082190#3 23971640 44785747 75117873 75117893 75810137 23971683#0 23971683#1 23971683#2 23971683#3 23971683#4 -409076848#2 -409076848#1 -409076848#0 409076847#0 409076847#1 409076847#2 409076847#3 151292466#2 23867718#0 23867718#1"/>
	</vehicle>
	<vehicle id="100096" depart="689.60" departLane="best" departSpeed="0.00" fromTaz="1120006" toTaz="1120003" type="POLICEMEN" >
		<route edges="75117908#5 75117908#6 75117908#0 75117908#1 75117908#2 75117830#0 75117830#1 23907595#2 75117838 106134336 106134328 106134392#0 106134392#1 106134392#2 75117855 75689698#3 75689698#4 75117872 75117863#2 409064668#0 409064668#1 409064668#2 409064668#3 118195341 -443446515#3 -443446515#2 -443446515#1 -443446515#0 -75126438#1 -75126438#0 -75117905 75117896 -75117887#2 -75117887#1 -75117887#0 -75117923#5 -75117923#4 -75117923#3 -75117923#2 -75117923#1 -75117923#0 -23881461#5 -23881461#4 -23881461#3 -23881461#2 -23881461#1 -23881461#0 23867718#0 23867718#1"/>
	</vehicle>
	<vehicle id="100091" depart="700.63" departLane="best" departSpeed="0.00" fromTaz="1120006" toTaz="1120003" type="FIREMEN" >
		<route edges="75117908#4 75117908#5 75117908#6 75117908#0 75117908#1 75117908#2 75117830#0 75117830#1 23907595#2 75117838 106134336 106134328 106134392#0 106134392#1 106134392#2 75117855 75689698#3 75689698#4 75117872 75117863#2 409064668#0 409064668#1 409064668#2 409064668#3 118195341 -443446515#3 -443446515#2 -443446515#1 -443446515#0 -75126438#1 -75126438#0 -75117905 75117896 -75117887#2 -75117887#1 -75117887#0 -75117923#5 -75117923#4 -75117923#3 -75117923#2 -75117923#1 -75117923#0 -23881461#5 -23881461#4 -23881461#3 -23881461#2 -23881461#1 -23881461#0 23867718#0 23867718#1 151292468 151292466#0 23859062#0"/>
	</vehicle>
	<vehicle id="100045" depart="701.67" departLane="best" departSpeed="0.00" fromTaz="1120005" toTaz="1120003" type="FIREMEN" >
		<route edges="71213417#0 71213417#1 71213426 160639339 160639318#1 71213423#0 71213418 151082190#2 151082190#3 23971640 44785747 75117873 75117893 75810137 23971683#0 23971683#1 23971683#2 23971683#3 23971683#4 -409076848#2 -409076848#1 -409076848#0 409076847#0 409076847#1 409076847#2 409076847#3 151292466#2 23867718#0 23867718#1"/>
	</vehicle>
	<vehicle id="100052" depart="708.52" departLane="best" departSpeed="0.00" fromTaz="1120006" toTaz="1120003" type="POLICEMEN" >
		<route edges="-75117862#0 75117908#5 75117908#6 75117908#0 75117908#1 75117908#2 75117830#0 75117830#1 23907595#2 75117838 106134336 106134328 106134392#0 106134392#1 106134392#2 75117855 75689698#3 75689698#4 75117872 75117863#2 409064668#0 409064668#1 409064668#2 409064668#3 118195341 -443446515#3 -443446515#2 -443446515#1 -443446515#0 -75126438#1 -75126438#0 -75117905 75117896 -75117887#2 -75117887#1 -75117887#0 -75117923#5 -75117923#4 -75117923#3 -75117923#2 -75117923#1 -75117923#0 -23881461#5 -23881461#4 -23881461#3 -23881461#2 -23881461#1 -23881461#0 23867718#0"/>
	</vehicle>
	<vehicle id="100016" depart="751.17" departLane="best" departSpeed="0.00" fromTaz="1120005" toTaz="1120003" type="FIREMEN" >
		<route edges="71213423#0 71213418 151082190#2 151082190#3 23971640 44785747 75117873 75117893 75810137 23971683#0 23971683#1 23971683#2 23971683#3 23971683#4 -409076848#2 -409076848#1 -409076848#0 409076847#0 409076847#1 409076847#2 409076847#3"/>
	</vehicle>
	<vehicle id="100057" depart="755.65" departLane="best" departSpeed="0.00" fromTaz="1120006" toTaz="1120003" type="POLICEMEN" >
		<route edges="-75117862#1 -75117862#0 75117908#5 75117908#6 75117908#0 75117908#1 75117908#2 75117830#0 75117830#1 23907595#2 75117838 106134336 106134328 106134392#0 106134392#1 106134392#2 75117855 75689698#3 75689698#4 75117872 75117863#2 409064668#0 409064668#1 409064668#2 409064668#3 118195341 -443446515#3 -443446515#2 -443446515#1 -443446515#0 -75126438#1 -75126438#0 -75117905 75117896 -75117887#2 -75117887#1 -75117887#0 -75117923#5 -75117923#4 -75117923#3 -75117923#2 -75117923#1 -75117923#0 -23881461#5 -23881461#4 -23881461#3 -23881461#2 -23881461#1 -23881461#0 23867718#0 23867718#1"/>
	</vehicle>
	<vehicle id="100011" depart="762.06" departLane="best" departSpeed="0.00" fromTaz="1120005" toTaz="1120003" type="FIREMEN" >
		<route edges="71213423#0 71213418 151082190#2 151082190#3 23971640 44785747 75117873 75117893 75810137 23971683#0 23971683#1 23971683#2 23971683#3 23971683#4 -409076848#2 -409076848#1 -409076848#0 409076847#0 409076847#1 409076847#2 409076847#3 151292466#2"/>
	</vehicle>
	<vehicle id="100037" depart="767.24" departLane="best" departSpeed="0.00" fromTaz="1120005" toTaz="1120003" type="POLICEMEN" >
		<route edges="71213426 160639339 160639318#1 71213423#0 71213418 151082190#2 151082190#3 23971640 44785747 75117873 75117893 75810137 23971683#0 23971683#1 23971683#2 23971683#3 23971683#4 -409076848#2 -409076848#1 -409076848#0 409076847#0 409076847#1 409076847#2 409076847#3 151292466#2 23867718#0 23867718#1"/>
	</vehicle>
	<vehicle id="100089" depart="769.75" departLane="best" departSpeed="0.00" fromTaz="1120006" toTaz="1120003" type="POLICEMEN" >
		<route edges="-75117862#1 -75117862#0 75117908#5 75117908#6 75117908#0 75117908#1 75117908#2 75117830#0 75117830#1 23907595#2 75117838 106134336 106134328 106134392#0 106134392#1 106134392#2 75117855 75689698#3 75689698#4 75117872 75117863#2 409064668#0 409064668#1 409064668#2 409064668#3 118195341 -443446515#3 -443446515#2 -443446515#1 -443446515#0 -75126438#1 -75126438#0 -75117905 75117896 -75117887#2 -75117887#1 -75117887#0 -75117923#5 -75117923#4 -75117923#3 -75117923#2 -75117923#1 -75117923#0 -409076845 409076846#0 409076846#1 409076846#2 409076846#3 314111998 75117845#0 75117845#1 409076847#3"/>
	</vehicle>
	<vehicle id="100036" depart="779.74" departLane="best" departSpeed="0.00" fromTaz="1120005" toTaz="1120003" type="FIREMEN" >
		<route edges="160639318#1 71213423#0 71213418 151082190#2 151082190#3 23971640 44785747 75117873 75117893 75810137 23971683#0 23971683#1 23971683#2 23971683#3 23971683#4 -409076848#2 -409076848#1 -409076848#0 409076847#0 409076847#1 409076847#2 409076847#3 151292466#2 23867718#0 23867718#1 151292468"/>
	</vehicle>
	<vehicle id="100035" depart="782.59" departLane="best" departSpeed="0.00" fromTaz="1120005" toTaz="1120003" type="POLICEMEN" >
		<route edges="71213426 160639339 160639318#1 71213423#0 71213418 151082190#2 151082190#3 23971640 44785747 75117873 75117893 75810137 23971683#0 23971683#1 23971683#2 23971683#3 23971683#4 -409076848#2 -409076848#1 -409076848#0 409076847#0 409076847#1 409076847#2 409076847#3 151292466#2"/>
	</vehicle>
	<vehicle id="100071" depart="786.01" departLane="best" departSpeed="0.00" fromTaz="1120006" toTaz="1120003" type="POLICEMEN" >
		<route edges="-75117862#1 -75117862#0 75117908#5 75117908#6 75117908#0 75117908#1 75117908#2 75117830#0 75117830#1 23907595#2 75117838 106134336 106134328 106134392#0 106134392#1 106134392#2 75117855 75689698#3 75689698#4 75117872 75117863#2 409064668#0 409064668#1 409064668#2 409064668#3 118195341 -443446515#3 -443446515#2 -443446515#1 -443446515#0 -75126438#1 -75126438#0 -75117905 75117896 -75117887#2 -75117887#1 -75117887#0 -75117923#5 -75117923#4 -75117923#3 -75117923#2 -75117923#1 -75117923#0 -23881461#5 -23881461#4 -23881461#3 -23881461#2 -23881461#1 -23881461#0 23867718#0 23867718#1 151292468"/>
	</vehicle>
	<vehicle id="100083" depart="809.51" departLane="best" departSpeed="0.00" fromTaz="1120006" toTaz="1120003" type="FIREMEN" >
		<route edges="75117862#1 75117921#1 75117881#1 75117846 106134380#0 106134380#1 23907595#8 23907595#0 23907595#1 23907595#2 75117838 106134336 106134328 106134392#0 106134392#1 106134392#2 75117855 75689698#3 75689698#4 75117872 75117863#2 409064668#0 409064668#1 409064668#2 409064668#3 118195341 -443446515#3 -443446515#2 -443446515#1 -443446515#0 -75126438#1 -75126438#0 -75117905 75117896 -75117887#2 -75117887#1 -75117887#0 -75117923#5 -75117923#4 -75117923#3 -75117923#2 -75117923#1 -75117923#0 -23881461#5 -23881461#4 -23881461#3 -23881461#2 -23881461#1 -23881461#0 23867718#0 23867718#1 151292468 151292466#0"/>
	</vehicle>
	<vehicle id="100028" depart="816.11" departLane="best" departSpeed="0.00" fromTaz="1120005" toTaz="1120003" type="FIREMEN" >
		<route edges="71213423#0 71213418 151082190#2 151082190#3 23971640 44785747 75117873 75117893 75810137 23971683#0 23971683#1 23971683#2 23971683#3 23971683#4 -409076848#2 -409076848#1 -409076848#0 409076847#0 409076847#1 409076847#2 409076847#3"/>
	</vehicle>
	<vehicle id="100062" depart="843.98" departLane="best" departSpeed="0.00" fromTaz="1120006" toTaz="1120003" type="POLICEMEN" >
		<route edges="75117908#4 75117908#5 75117908#6 75117908#0 75117908#1 75117908#2 75117830#0 75117830#1 23907595#2 75117838 106134336 106134328 106134392#0 106134392#1 106134392#2 75117855 75689698#3 75689698#4 75117872 75117863#2 409064668#0 409064668#1 409064668#2 409064668#3 118195341 -443446515#3 -443446515#2 -443446515#1 -443446515#0 -75126438#1 -75126438#0 -75117905 75117896 -75117887#2 -75117887#1 -75117887#0 -75117923#5 -75117923#4 -75117923#3 -75117923#2 -75117923#1 -75117923#0 -23881461#5 -23881461#4 -23881461#3 -23881461#2 -23881461#1 -23881461#0 23867718#0"/>
	</vehicle>
	<vehicle id="100040" depart="862.10" departLane="best" departSpeed="0.00" fromTaz="1120005" toTaz="1120003" type="POLICEMEN" >
		<route edges="71213423#0 71213418 151082190#2 151082190#3 23971640 44785747 75117873 75117893 75810137 23971683#0 23971683#1 23971683#2 23971683#3 23971683#4 -409076848#2 -409076848#1 -409076848#0 409076847#0 409076847#1 409076847#2 409076847#3 151292466#2 23867718#0 23867718#1 151292468 151292466#0 23859062#0"/>
	</vehicle>
	<vehicle id="100090" depart="904.58" departLane="best" departSpeed="0.00" fromTaz="1120006" toTaz="1120003" type="FIREMEN" >
		<route edges="-75117862#1 -75117862#0 75117908#5 75117908#6 75117908#0 75117908#1 75117908#2 75117830#0 75117830#1 23907595#2 75117838 106134336 106134328 106134392#0 106134392#1 106134392#2 75117855 75689698#3 75689698#4 75117872 75117863#2 409064668#0 409064668#1 409064668#2 409064668#3 118195341 -443446515#3 -443446515#2 -443446515#1 -443446515#0 -75126438#1 -75126438#0 -75117905 75117896 -75117887#2 -75117887#1 -75117887#0 -75117923#5 -75117923#4 -75117923#3 -75117923#2 -75117923#1 -75117923#0 -409076845 409076846#0 409076846#1 409076846#2 409076846#3 314111998 75117845#0 75117845#1 409076847#3"/>
	</vehicle>
	<vehicle id="100046" depart="905.79" departLane="best" departSpeed="0.00" fromTaz="1120005" toTaz="1120003" type="POLICEMEN" >
		<route edges="71213417#0 71213417#1 71213426 160639339 160639318#1 71213423#0 71213418 151082190#2 151082190#3 23971640 44785747 75117873 75117893 75810137 23971683#0 23971683#1 23971683#2 23971683#3 23971683#4 -409076848#2 -409076848#1 -409076848#0 409076847#0 409076847#1 409076847#2 409076847#3 151292466#2 23867718#0 23867718#1 151292468 151292466#0"/>
	</vehicle>
	<vehicle id="100068" depart="925.69" departLane="best" departSpeed="0.00" fromTaz="1120006" toTaz="1120003" type="POLICEMEN" >
		<route edges="-75117862#1 -75117862#0 75117908#5 75117908#6 75117908#0 75117908#1 75117908#2 75117830#0 75117830#1 23907595#2 75117838 106134336 106134328 106134392#0 106134392#1 106134392#2 75117855 75689698#3 75689698#4 75117872 75117863#2 409064668#0 409064668#1 409064668#2 409064668#3 118195341 -443446515#3 -443446515#2 -443446515#1 -443446515#0 -75126438#1 -75126438#0 -75117905 75117896 -75117887#2 -75117887#1 -75117887#0 -75117923#5 -75117923#4 -75117923#3 -75117923#2 -75117923#1 -75117923#0 -23881461#5 -23881461#4 -23881461#3 -23881461#2 -23881461#1 -23881461#0 23867718#0 23867718#1 151292468 151292466#0 23859062#0"/>
	</vehicle>
	<vehicle id="100077" depart="943.65" departLane="best" departSpeed="0.00" fromTaz="1120006" toTaz="1120003" type="POLICEMEN" >
		<route edges="-75117862#0 75117908#5 75117908#6 75117908#0 75117908#1 75117908#2 75117830#0 75117830#1 23907595#2 75117838 106134336 106134328 106134392#0 106134392#1 106134392#2 75117855 75689698#3 75689698#4 75117872 75117863#2 409064668#0 409064668#1 409064668#2 409064668#3 118195341 -443446515#3 -443446515#2 -443446515#1 -443446515#0 -75126438#1 -75126438#0 -75117905 75117896 -75117887#2 -75117887#1 -75117887#0 -75117923#5 -75117923#4 -75117923#3 -75117923#2 -75117923#1 -75117923#0 -23881461#5 -23881461#4 -23881461#3 -23881461#2 -23881461#1 -23881461#0 23867718#0 23867718#1"/>
	</vehicle>
	<vehicle id="100064" depart="945.45" departLane="best" departSpeed="0.00" fromTaz="1120006" toTaz="1120003" type="POLICEMEN" >
		<route edges="-75117862#0 75117908#5 75117908#6 75117908#0 75117908#1 75117908#2 75117830#0 75117830#1 23907595#2 75117838 106134336 106134328 106134392#0 106134392#1 106134392#2 75117855 75689698#3 75689698#4 75117872 75117863#2 409064668#0 409064668#1 409064668#2 409064668#3 118195341 -443446515#3 -443446515#2 -443446515#1 -443446515#0 -75126438#1 -75126438#0 -75117905 75117896 -75117887#2 -75117887#1 -75117887#0 -75117923#5 -75117923#4 -75117923#3 -75117923#2 -75117923#1 -75117923#0 -23881461#5 -23881461#4 -23881461#3 -23881461#2 -23881461#1 -23881461#0 23867718#0 23867718#1 151292468"/>
	</vehicle>
	<vehicle id="100022" depart="945.65" departLane="best" departSpeed="0.00" fromTaz="1120005" toTaz="1120003" type="POLICEMEN" >
		<route edges="71213423#0 71213418 151082190#2 151082190#3 23971640 44785747 75117873 75117893 75810137 23971683#0 23971683#1 23971683#2 23971683#3 23971683#4 -409076848#2 -409076848#1 -409076848#0 409076847#0 409076847#1 409076847#2 409076847#3 151292466#2"/>
	</vehicle>
	<vehicle id="100021" depart="952.32" departLane="best" departSpeed="0.00" fromTaz="1120005" toTaz="1120003" type="FIREMEN" >
		<route edges="71213417#0 71213417#1 71213426 160639339 160639318#1 71213423#0 71213418 151082190#2 151082190#3 23971640 44785747 75117873 75117893 75810137 23971683#0 23971683#1 23971683#2 23971683#3 23971683#4 -409076848#2 -409076848#1 -409076848#0 409076847#0 409076847#1 409076847#2 409076847#3 151292466#2"/>
	</vehicle>
	<vehicle id="10000" depart="990.93" departLane="best" departSpeed="0.00" fromTaz="1120005" toTaz="1120003" type="POLICEMEN" >
		<route edges="160639318#1 71213423#0 71213418 151082190#2 151082190#3 23971640 44785747 75117873 75117893 75810137 23971683#0 23971683#1 23971683#2 23971683#3 23971683#4 -409076848#2 -409076848#1 -409076848#0 409076847#0 409076847#1 409076847#2 409076847#3 151292466#2 23867718#0 23867718#1 151292468"/>
	</vehicle>
	<vehicle id="100005" depart="1010.45" departLane="best" departSpeed="0.00" fromTaz="1120005" toTaz="1120003" type="POLICEMEN" >
		<route edges="71213417#0 71213417#1 71213426 160639339 160639318#1 71213423#0 71213418 151082190#2 151082190#3 23971640 44785747 75117873 75117893 75810137 23971683#0 23971683#1 23971683#2 23971683#3 23971683#4 -409076848#2 -409076848#1 -409076848#0 409076847#0 409076847#1 409076847#2 409076847#3 151292466#2 23867718#0"/>
	</vehicle>
	<vehicle id="100041" depart="1010.68" departLane="best" departSpeed="0.00" fromTaz="1120005" toTaz="1120003" type="FIREMEN" >
		<route edges="160639318#1 71213423#0 71213418 151082190#2 151082190#3 23971640 44785747 75117873 75117893 75810137 23971683#0 23971683#1 23971683#2 23971683#3 23971683#4 -409076848#2 -409076848#1 -409076848#0 409076847#0 409076847#1 409076847#2 409076847#3 151292466#2 23867718#0 23867718#1"/>
	</vehicle>
	<vehicle id="100032" depart="1023.68" departLane="best" departSpeed="0.00" fromTaz="1120005" toTaz="1120003" type="POLICEMEN" >
		<route edges="71213423#0 71213418 151082190#2 151082190#3 23971640 44785747 75117873 75117893 75810137 23971683#0 23971683#1 23971683#2 23971683#3 23971683#4 -409076848#2 -409076848#1 -409076848#0 409076847#0 409076847#1 409076847#2 409076847#3 151292466#2 23867718#0 23867718#1 151292468 151292466#0"/>
	</vehicle>
	<vehicle id="100099" depart="1025.96" departLane="best" departSpeed="0.00" fromTaz="1120006" toTaz="1120003" type="FIREMEN" >
		<route edges="75117908#4 75117908#5 75117908#6 75117908#0 75117908#1 75117908#2 75117830#0 75117830#1 23907595#2 75117838 106134336 106134328 106134392#0 106134392#1 106134392#2 75117855 75689698#3 75689698#4 75117872 75117863#2 409064668#0 409064668#1 409064668#2 409064668#3 118195341 -443446515#3 -443446515#2 -443446515#1 -443446515#0 -75126438#1 -75126438#0 -75117905 75117896 -75117887#2 -75117887#1 -75117887#0 -75117923#5 -75117923#4 -75117923#3 -75117923#2 -75117923#1 -75117923#0 -409076845 409076846#0 409076846#1 409076846#2 409076846#3 314111998 75117845#0 75117845#1 409076847#3"/>
	</vehicle>
	<vehicle id="100085" depart="1038.42" departLane="best" departSpeed="0.00" fromTaz="1120006" toTaz="1120003" type="FIREMEN" >
		<route edges="75117908#5 75117908#6 75117908#0 75117908#1 75117908#2 75117830#0 75117830#1 23907595#2 75117838 106134336 106134328 106134392#0 106134392#1 106134392#2 75117855 75689698#3 75689698#4 75117872 75117863#2 409064668#0 409064668#1 409064668#2 409064668#3 118195341 -443446515#3 -443446515#2 -443446515#1 -443446515#0 -75126438#1 -75126438#0 -75117905 75117896 -75117887#2 -75117887#1 -75117887#0 -75117923#5 -75117923#4 -75117923#3 -75117923#2 -75117923#1 -75117923#0 -23881461#5 -23881461#4 -23881461#3 -23881461#2 -23881461#1 -23881461#0 23867718#0 23867718#1"/>
	</vehicle>
	<vehicle id="100070" depart="1040.35" departLane="best" departSpeed="0.00" fromTaz="1120006" toTaz="1120003" type="POLICEMEN" >
		<route edges="-75117862#1 -75117862#0 75117908#5 75117908#6 75117908#0 75117908#1 75117908#2 75117830#0 75117830#1 23907595#2 75117838 106134336 106134328 106134392#0 106134392#1 106134392#2 75117855 75689698#3 75689698#4 75117872 75117863#2 409064668#0 409064668#1 409064668#2 409064668#3 118195341 -443446515#3 -443446515#2 -443446515#1 -443446515#0 -75126438#1 -75126438#0 -75117905 75117896 -75117887#2 -75117887#1 -75117887#0 -75117923#5 -75117923#4 -75117923#3 -75117923#2 -75117923#1 -75117923#0 -23881461#5 -23881461#4 -23881461#3 -23881461#2 -23881461#1 -23881461#0 23867718#0 23867718#1 151292468 151292466#0 151292466#1"/>
	</vehicle>
	<vehicle id="100072" depart="1074.44" departLane="best" departSpeed="0.00" fromTaz="1120006" toTaz="1120003" type="FIREMEN" >
		<route edges="75117908#4 75117908#5 75117908#6 75117908#0 75117908#1 75117908#2 75117830#0 75117830#1 23907595#2 75117838 106134336 106134328 106134392#0 106134392#1 106134392#2 75117855 75689698#3 75689698#4 75117872 75117863#2 409064668#0 409064668#1 409064668#2 409064668#3 118195341 -443446515#3 -443446515#2 -443446515#1 -443446515#0 -75126438#1 -75126438#0 -75117905 75117896 -75117887#2 -75117887#1 -75117887#0 -75117923#5 -75117923#4 -75117923#3 -75117923#2 -75117923#1 -75117923#0 -23881461#5 -23881461#4 -23881461#3 -23881461#2 -23881461#1 -23881461#0 23867718#0 23867718#1"/>
	</vehicle>
	<vehicle id="100061" depart="1076.04" departLane="best" departSpeed="0.00" fromTaz="1120006" toTaz="1120003" type="FIREMEN" >
		<route edges="75117862#1 75117921#1 75117881#1 75117846 106134380#0 106134380#1 23907595#8 23907595#0 23907595#1 23907595#2 75117838 106134336 106134328 106134392#0 106134392#1 106134392#2 75117855 75689698#3 75689698#4 75117872 75117863#2 409064668#0 409064668#1 409064668#2 409064668#3 118195341 -443446515#3 -443446515#2 -443446515#1 -443446515#0 -75126438#1 -75126438#0 -75117905 75117896 -75117887#2 -75117887#1 -75117887#0 -75117923#5 -75117923#4 -75117923#3 -75117923#2 -75117923#1 -75117923#0 -23881461#5 -23881461#4 -23881461#3 -23881461#2 -23881461#1 -23881461#0 23867718#0 23867718#1 151292468 151292466#0"/>
	</vehicle>
	<vehicle id="100001" depart="1076.94" departLane="best" departSpeed="0.00" fromTaz="1120005" toTaz="1120003" type="POLICEMEN" >
		<route edges="160639318#1 71213423#0 71213418 151082190#2 151082190#3 23971640 44785747 75117873 75117893 75810137 23971683#0 23971683#1 23971683#2 23971683#3 23971683#4 -409076848#2 -409076848#1 -409076848#0 409076847#0 409076847#1 409076847#2 409076847#3 151292466#2 23867718#0"/>
	</vehicle>
	<vehicle id="100074" depart="1084.43" departLane="best" departSpeed="0.00" fromTaz="1120006" toTaz="1120003" type="FIREMEN" >
		<route edges="-75117862#1 -75117862#0 75117908#5 75117908#6 75117908#0 75117908#1 75117908#2 75117830#0 75117830#1 23907595#2 75117838 106134336 106134328 106134392#0 106134392#1 106134392#2 75117855 75689698#3 75689698#4 75117872 75117863#2 409064668#0 409064668#1 409064668#2 409064668#3 118195341 -443446515#3 -443446515#2 -443446515#1 -443446515#0 -75126438#1 -75126438#0 -75117905 75117896 -75117887#2 -75117887#1 -75117887#0 -75117923#5 -75117923#4 -75117923#3 -75117923#2 -75117923#1 -75117923#0 -23881461#5 -23881461#4 -23881461#3 -23881461#2 -23881461#1 -23881461#0 23867718#0 23867718#1 151292468 151292466#0 23859062#0"/>
	</vehicle>
	<vehicle id="100025" depart="1142.30" departLane="best" departSpeed="0.00" fromTaz="1120005" toTaz="1120003" type="FIREMEN" >
		<route edges="71213423#2 71213417#0 71213417#1 71213426 160639339 160639318#1 71213423#0 71213418 151082190#2 151082190#3 23971640 44785747 75117873 75117893 75810137 23971683#0 23971683#1 23971683#2 23971683#3 23971683#4 -409076848#2 -409076848#1 -409076848#0 409076847#0 409076847#1 409076847#2 409076847#3 151292466#2 23867718#0 23867718#1 151292468 151292466#0 23859062#0"/>
	</vehicle>
	<vehicle id="100094" depart="1178.63" departLane="best" departSpeed="0.00" fromTaz="1120006" toTaz="1120003" type="POLICEMEN" >
		<route edges="75117908#5 75117908#6 75117908#0 75117908#1 75117908#2 75117830#0 75117830#1 23907595#2 75117838 106134336 106134328 106134392#0 106134392#1 106134392#2 75117855 75689698#3 75689698#4 75117872 75117863#2 409064668#0 409064668#1 409064668#2 409064668#3 118195341 -443446515#3 -443446515#2 -443446515#1 -443446515#0 -75126438#1 -75126438#0 -75117905 75117896 -75117887#2 -75117887#1 -75117887#0 -75117923#5 -75117923#4 -75117923#3 -75117923#2 -75117923#1 -75117923#0 -23881461#5 -23881461#4 -23881461#3 -23881461#2 -23881461#1 -23881461#0 23867718#0"/>
	</vehicle>
	<vehicle id="100050" depart="1187.99" departLane="best" departSpeed="0.00" fromTaz="1120006" toTaz="1120003" type="FIREMEN" >
		<route edges="75117908#4 75117908#5 75117908#6 75117908#0 75117908#1 75117908#2 75117830#0 75117830#1 23907595#2 75117838 106134336 106134328 106134392#0 106134392#1 106134392#2 75117855 75689698#3 75689698#4 75117872 75117863#2 409064668#0 409064668#1 409064668#2 409064668#3 118195341 -443446515#3 -443446515#2 -443446515#1 -443446515#0 -75126438#1 -75126438#0 -75117905 75117896 -75117887#2 -75117887#1 -75117887#0 -75117923#5 -75117923#4 -75117923#3 -75117923#2 -75117923#1 -75117923#0 -23881461#5 -23881461#4 -23881461#3 -23881461#2 -23881461#1 -23881461#0 23867718#0 23867718#1 151292468"/>
	</vehicle>
	<vehicle id="100075" depart="1217.57" departLane="best" departSpeed="0.00" fromTaz="1120006" toTaz="1120003" type="FIREMEN" >
		<route edges="-75117862#0 75117908#5 75117908#6 75117908#0 75117908#1 75117908#2 75117830#0 75117830#1 23907595#2 75117838 106134336 106134328 106134392#0 106134392#1 106134392#2 75117855 75689698#3 75689698#4 75117872 75117863#2 409064668#0 409064668#1 409064668#2 409064668#3 118195341 -443446515#3 -443446515#2 -443446515#1 -443446515#0 -75126438#1 -75126438#0 -75117905 75117896 -75117887#2 -75117887#1 -75117887#0 -75117923#5 -75117923#4 -75117923#3 -75117923#2 -75117923#1 -75117923#0 -23881461#5 -23881461#4 -23881461#3 -23881461#2 -23881461#1 -23881461#0 23867718#0 23867718#1 151292468 151292466#0"/>
	</vehicle>
	<vehicle id="100003" depart="1254.29" departLane="best" departSpeed="0.00" fromTaz="1120005" toTaz="1120003" type="FIREMEN" >
		<route edges="71213417#1 71213426 160639339 160639318#1 71213423#0 71213418 151082190#2 151082190#3 23971640 44785747 75117873 75117893 75810137 23971683#0 23971683#1 23971683#2 23971683#3 23971683#4 -409076848#2 -409076848#1 -409076848#0 409076847#0 409076847#1 409076847#2 409076847#3 151292466#2 23867718#0 23867718#1 151292468"/>
	</vehicle>
	<vehicle id="100015" depart="1266.67" departLane="best" departSpeed="0.00" fromTaz="1120005" toTaz="1120003" type="POLICEMEN" >
		<route edges="71213423#0 71213418 151082190#2 151082190#3 23971640 44785747 75117873 75117893 75810137 23971683#0 23971683#1 23971683#2 23971683#3 23971683#4 -409076848#2 -409076848#1 -409076848#0 409076847#0 409076847#1 409076847#2 409076847#3 151292466#2 23867718#0"/>
	</vehicle>
	<vehicle id="100088" depart="1288.48" departLane="best" departSpeed="0.00" fromTaz="1120006" toTaz="1120003" type="POLICEMEN" >