<?xml version="1.0" encoding="UTF-8"?>

<!-- generated on Sun Feb  5 11:03:13 2017 by SUMO netconvert Version 0.27.1
<?xml version="1.0" encoding="UTF-8"?>

<configuration xmlns:xsi="http://www.w3.org/2001/XMLSchema-instance" xsi:noNamespaceSchemaLocation="http://sumo.dlr.de/xsd/netconvertConfiguration.xsd">

    <input>
        <type-files value="netconvert.osm.types.xml"/>
        <osm-files value="../osm/madrid_retiro.osm"/>
    </input>

    <output>
        <output-file value="madrid_retiro.net.xml"/>
        <plain-output-prefix value="madrid_retiro"/>
        <output.street-names value="true"/>
        <output.original-names value="true"/>
    </output>

    <projection>
        <proj.utm value="true"/>
        <proj.plain-geo value="true"/>
    </projection>

    <edge_removal>
        <remove-edges.by-type value="highway.bridleway,highway.cycleway,highway.footway,highway.ford,highway.path,highway.pedestrian,highway.service,highway.stairs,highway.step,highway.steps,highway.track,railway.light_rail,railway.preserved,railway.rail,railway.subway,railway.tram"/>
    </edge_removal>

</configuration>
-->

<tlLogics version="0.27" xmlns:xsi="http://www.w3.org/2001/XMLSchema-instance" xsi:noNamespaceSchemaLocation="http://sumo.dlr.de/xsd/tllogic_file.xsd">
    <tlLogic id="1278838937" type="static" programID="0" offset="0">
        <phase duration="86" state="G"/>
        <phase duration="4" state="y"/>
    </tlLogic>
    <tlLogic id="1278838975" type="static" programID="0" offset="0">
        <phase duration="86" state="GGG"/>
        <phase duration="4" state="yyy"/>
    </tlLogic>
    <tlLogic id="1278838976" type="static" programID="0" offset="0">
        <phase duration="86" state="GGG"/>
        <phase duration="4" state="yyy"/>
    </tlLogic>
    <tlLogic id="1278838994" type="static" programID="0" offset="0">
        <phase duration="41" state="GGGGGrrr"/>
        <phase duration="4" state="yyyyyrrr"/>
        <phase duration="41" state="rrrrrGGG"/>
        <phase duration="4" state="rrrrryyy"/>
    </tlLogic>
    <tlLogic id="1278839005" type="static" programID="0" offset="0">
        <phase duration="86" state="GgGg"/>
        <phase duration="4" state="yyyy"/>
    </tlLogic>
    <tlLogic id="1278839019" type="static" programID="0" offset="0">
        <phase duration="86" state="GG"/>
        <phase duration="4" state="yy"/>
    </tlLogic>
    <tlLogic id="1278839025" type="static" programID="0" offset="0">
        <phase duration="86" state="GGG"/>
        <phase duration="4" state="yyy"/>
    </tlLogic>
    <tlLogic id="1278839038" type="static" programID="0" offset="0">
        <phase duration="86" state="GGG"/>
        <phase duration="4" state="yyy"/>
    </tlLogic>
    <tlLogic id="1278839042" type="static" programID="0" offset="0">
        <phase duration="86" state="GG"/>
        <phase duration="4" state="yy"/>
    </tlLogic>
    <tlLogic id="1278839084" type="static" programID="0" offset="0">
        <phase duration="86" state="GG"/>
        <phase duration="4" state="yy"/>
    </tlLogic>
    <tlLogic id="1278839092" type="static" programID="0" offset="0">
        <phase duration="86" state="GGG"/>
        <phase duration="4" state="yyy"/>
    </tlLogic>
    <tlLogic id="1278839131" type="static" programID="0" offset="0">
        <phase duration="86" state="G"/>
        <phase duration="4" state="y"/>
    </tlLogic>
    <tlLogic id="1505184312" type="static" programID="0" offset="0">
        <phase duration="86" state="GGgGGg"/>
        <phase duration="4" state="yyyyyy"/>
    </tlLogic>
    <tlLogic id="1505184313" type="static" programID="0" offset="0">
        <phase duration="86" state="GGgGGg"/>
        <phase duration="4" state="yyyyyy"/>
    </tlLogic>
    <tlLogic id="1505184314" type="static" programID="0" offset="0">
        <phase duration="86" state="GGgGGg"/>
        <phase duration="4" state="yyyyyy"/>
    </tlLogic>
    <tlLogic id="1505184315" type="static" programID="0" offset="0">
        <phase duration="86" state="G"/>
        <phase duration="4" state="y"/>
    </tlLogic>
    <tlLogic id="1505184316" type="static" programID="0" offset="0">
        <phase duration="86" state="GGgGGg"/>
        <phase duration="4" state="yyyyyy"/>
    </tlLogic>
    <tlLogic id="1505184318" type="static" programID="0" offset="0">
        <phase duration="86" state="GGgGGg"/>
        <phase duration="4" state="yyyyyy"/>
    </tlLogic>
    <tlLogic id="1505184321" type="static" programID="0" offset="0">
        <phase duration="86" state="G"/>
        <phase duration="4" state="y"/>
    </tlLogic>
    <tlLogic id="1505184322" type="static" programID="0" offset="0">
        <phase duration="86" state="GG"/>
        <phase duration="4" state="yy"/>
    </tlLogic>
    <tlLogic id="1505184323" type="static" programID="0" offset="0">
        <phase duration="86" state="GG"/>
        <phase duration="4" state="yy"/>
    </tlLogic>
    <tlLogic id="1505184327" type="static" programID="0" offset="0">
        <phase duration="86" state="GG"/>
        <phase duration="4" state="yy"/>
    </tlLogic>
    <tlLogic id="1505184328" type="static" programID="0" offset="0">
        <phase duration="86" state="GG"/>
        <phase duration="4" state="yy"/>
    </tlLogic>
    <tlLogic id="1505184329" type="static" programID="0" offset="0">
        <phase duration="86" state="G"/>
        <phase duration="4" state="y"/>
    </tlLogic>
    <tlLogic id="1505184331" type="static" programID="0" offset="0">
        <phase duration="86" state="GgGg"/>
        <phase duration="4" state="yyyy"/>
    </tlLogic>
    <tlLogic id="171946" type="static" programID="0" offset="0">
        <phase duration="41" state="GGrrrr"/>
        <phase duration="4" state="yyrrrr"/>
        <phase duration="41" state="rrGGGG"/>
        <phase duration="4" state="rryyyy"/>
    </tlLogic>
    <tlLogic id="1915012227" type="static" programID="0" offset="0">
        <phase duration="86" state="GGG"/>
        <phase duration="4" state="yyy"/>
    </tlLogic>
    <tlLogic id="1915012228" type="static" programID="0" offset="0">
        <phase duration="86" state="GG"/>
        <phase duration="4" state="yy"/>
    </tlLogic>
    <tlLogic id="1915012230" type="static" programID="0" offset="0">
        <phase duration="86" state="GGG"/>
        <phase duration="4" state="yyy"/>
    </tlLogic>
    <tlLogic id="1950481105" type="static" programID="0" offset="0">
        <phase duration="86" state="GGGG"/>
        <phase duration="4" state="yyyy"/>
    </tlLogic>
    <tlLogic id="1950481116" type="static" programID="0" offset="0">
        <phase duration="86" state="GgGg"/>
        <phase duration="4" state="yyyy"/>
    </tlLogic>
    <tlLogic id="1957490899" type="static" programID="0" offset="0">
        <phase duration="86" state="GGG"/>
        <phase duration="4" state="yyy"/>
    </tlLogic>
    <tlLogic id="1973690386" type="static" programID="0" offset="0">
        <phase duration="86" state="G"/>
        <phase duration="4" state="y"/>
    </tlLogic>
    <tlLogic id="21627170" type="static" programID="0" offset="0">
        <phase duration="86" state="GG"/>
        <phase duration="4" state="yy"/>
    </tlLogic>
    <tlLogic id="21627306" type="static" programID="0" offset="0">
        <phase duration="86" state="GG"/>
        <phase duration="4" state="yy"/>
    </tlLogic>
    <tlLogic id="2377018002" type="static" programID="0" offset="0">
        <phase duration="86" state="G"/>
        <phase duration="4" state="y"/>
    </tlLogic>
    <tlLogic id="25552412" type="static" programID="0" offset="0">
        <phase duration="86" state="GGG"/>
        <phase duration="4" state="yyy"/>
    </tlLogic>
    <tlLogic id="25552423" type="static" programID="0" offset="0">
        <phase duration="41" state="GGGrrrrrrG"/>
        <phase duration="4" state="yyyrrrrrry"/>
        <phase duration="41" state="rrrGGGGGGr"/>
        <phase duration="4" state="rrryyyyyyr"/>
    </tlLogic>
    <tlLogic id="25552447" type="static" programID="0" offset="0">
        <phase duration="41" state="GrrGgGGG"/>
        <phase duration="4" state="yrryyyyy"/>
        <phase duration="41" state="GGGrrrrG"/>
        <phase duration="4" state="yyyrrrry"/>
    </tlLogic>
    <tlLogic id="25552448" type="static" programID="0" offset="0">
        <phase duration="86" state="GGG"/>
        <phase duration="4" state="yyy"/>
    </tlLogic>
    <tlLogic id="25552450" type="static" programID="0" offset="0">
        <phase duration="86" state="GGGG"/>
        <phase duration="4" state="yyyy"/>
    </tlLogic>
    <tlLogic id="25901895" type="static" programID="0" offset="0">
        <phase duration="86" state="GG"/>
        <phase duration="4" state="yy"/>
    </tlLogic>
    <tlLogic id="25901925" type="static" programID="0" offset="0">
        <phase duration="41" state="GGrr"/>
        <phase duration="4" state="yyrr"/>
        <phase duration="41" state="rrGG"/>
        <phase duration="4" state="rryy"/>
    </tlLogic>
    <tlLogic id="25901950" type="static" programID="0" offset="0">
        <phase duration="86" state="GGGG"/>
        <phase duration="4" state="yyyy"/>
    </tlLogic>
    <tlLogic id="25903302" type="static" programID="0" offset="0">
        <phase duration="86" state="GGG"/>
        <phase duration="4" state="yyy"/>
    </tlLogic>
    <tlLogic id="25903309" type="static" programID="0" offset="0">
        <phase duration="76" state="GgGGg"/>
        <phase duration="4" state="ygyyg"/>
        <phase duration="6" state="rGrrg"/>
        <phase duration="4" state="ryrry"/>
    </tlLogic>
    <tlLogic id="2827804125" type="static" programID="0" offset="0">
        <phase duration="86" state="GG"/>
        <phase duration="4" state="yy"/>
    </tlLogic>
    <tlLogic id="3235382373" type="static" programID="0" offset="0">
        <phase duration="86" state="G"/>
        <phase duration="4" state="y"/>
    </tlLogic>
    <tlLogic id="329991283" type="static" programID="0" offset="0">
        <phase duration="86" state="GG"/>
        <phase duration="4" state="yy"/>
    </tlLogic>
    <tlLogic id="329991544" type="static" programID="0" offset="0">
        <phase duration="86" state="GG"/>
        <phase duration="4" state="yy"/>
    </tlLogic>
    <tlLogic id="3323813669" type="static" programID="0" offset="0">
        <phase duration="86" state="G"/>
        <phase duration="4" state="y"/>
    </tlLogic>
    <tlLogic id="3418035823" type="static" programID="0" offset="0">
        <phase duration="86" state="G"/>
        <phase duration="4" state="y"/>
    </tlLogic>
    <tlLogic id="3418035825" type="static" programID="0" offset="0">
        <phase duration="86" state="G"/>
        <phase duration="4" state="y"/>
    </tlLogic>
    <tlLogic id="3428425011" type="static" programID="0" offset="0">
        <phase duration="86" state="GG"/>
        <phase duration="4" state="yy"/>
    </tlLogic>
    <tlLogic id="3428425012" type="static" programID="0" offset="0">
        <phase duration="86" state="GG"/>
        <phase duration="4" state="yy"/>
    </tlLogic>
    <tlLogic id="3428425014" type="static" programID="0" offset="0">
        <phase duration="86" state="GGGG"/>
        <phase duration="4" state="yyyy"/>
    </tlLogic>
    <tlLogic id="345538475" type="static" programID="0" offset="0">
        <phase duration="86" state="G"/>
        <phase duration="4" state="y"/>
    </tlLogic>
    <tlLogic id="4203458319" type="static" programID="0" offset="0">
        <phase duration="86" state="G"/>
        <phase duration="4" state="y"/>
    </tlLogic>
    <tlLogic id="4470512290" type="static" programID="0" offset="0">
        <phase duration="86" state="GGGG"/>
        <phase duration="4" state="yyyy"/>
    </tlLogic>
    <tlLogic id="554166728" type="static" programID="0" offset="0">
        <phase duration="86" state="GG"/>
        <phase duration="4" state="yy"/>
    </tlLogic>
    <tlLogic id="942080445" type="static" programID="0" offset="0">
        <phase duration="41" state="GGrr"/>
        <phase duration="4" state="yyrr"/>
        <phase duration="41" state="rrGG"/>
        <phase duration="4" state="rryy"/>
    </tlLogic>
    <tlLogic id="942080448" type="static" programID="0" offset="0">
        <phase duration="41" state="GGrr"/>
        <phase duration="4" state="yyrr"/>
        <phase duration="41" state="rrGG"/>
        <phase duration="4" state="rryy"/>
    </tlLogic>
    <tlLogic id="942080449" type="static" programID="0" offset="0">
        <phase duration="86" state="GGGG"/>
        <phase duration="4" state="yyyy"/>
    </tlLogic>
    <tlLogic id="942080459" type="static" programID="0" offset="0">
        <phase duration="86" state="G"/>
        <phase duration="4" state="y"/>
    </tlLogic>

    <connection from="-109462887#0" to="4526341#11" fromLane="0" toLane="0" tl="25552423" linkIndex="0"/>
    <connection from="-109462887#0" to="4526341#11" fromLane="0" toLane="1" tl="25552423" linkIndex="1"/>
    <connection from="-109462887#0" to="-109462899#1" fromLane="0" toLane="0" tl="25552423" linkIndex="2"/>
    <connection from="-109462894#0" to="4261173#0" fromLane="0" toLane="1" tl="25552447" linkIndex="3"/>
    <connection from="-109462894#0" to="109462894#0" fromLane="0" toLane="0" tl="25552447" linkIndex="4"/>
    <connection from="-109462894#2" to="-109462894#1" fromLane="0" toLane="0" tl="1278839005" linkIndex="0"/>
    <connection from="-109462894#2" to="109462894#2" fromLane="0" toLane="0" tl="1278839005" linkIndex="1"/>
    <connection from="-109462899#1" to="-109462899#0" fromLane="0" toLane="0" tl="1950481116" linkIndex="0"/>
    <connection from="-109462899#1" to="109462899#1" fromLane="0" toLane="0" tl="1950481116" linkIndex="1"/>
    <connection from="-109462900#1" to="-109462900#0" fromLane="0" toLane="0" tl="1505184331" linkIndex="0"/>
    <connection from="-109462900#1" to="109462900#1" fromLane="0" toLane="0" tl="1505184331" linkIndex="1"/>
    <connection from="-44572472" to="44572472" fromLane="1" toLane="1" tl="1505184315" linkIndex="0"/>
    <connection from="-44572474#1" to="-44572474#0" fromLane="0" toLane="0" tl="1505184314" linkIndex="3"/>
    <connection from="-44572474#1" to="-44572474#0" fromLane="1" toLane="1" tl="1505184314" linkIndex="4"/>
    <connection from="-44572474#1" to="44572474#1" fromLane="1" toLane="1" tl="1505184314" linkIndex="5"/>
    <connection from="-44572475#1" to="-44572475#0" fromLane="0" toLane="0" tl="1505184316" linkIndex="0"/>
    <connection from="-44572475#1" to="-44572475#0" fromLane="1" toLane="1" tl="1505184316" linkIndex="1"/>
    <connection from="-44572475#1" to="44572475#1" fromLane="1" toLane="1" tl="1505184316" linkIndex="2"/>
    <connection from="-44572475#2" to="-44572475#1" fromLane="0" toLane="0" tl="1505184318" linkIndex="0"/>
    <connection from="-44572475#2" to="-44572475#1" fromLane="1" toLane="1" tl="1505184318" linkIndex="1"/>
    <connection from="-44572475#2" to="44572475#2" fromLane="1" toLane="1" tl="1505184318" linkIndex="2"/>
    <connection from="-4688562#1" to="-4688562#0" fromLane="0" toLane="0" tl="1505184312" linkIndex="3"/>
    <connection from="-4688562#1" to="-4688562#0" fromLane="1" toLane="1" tl="1505184312" linkIndex="4"/>
    <connection from="-4688562#1" to="4688562#1" fromLane="1" toLane="1" tl="1505184312" linkIndex="5"/>
    <connection from="-4688562#2" to="-4688562#1" fromLane="0" toLane="0" tl="1505184313" linkIndex="3"/>
    <connection from="-4688562#2" to="-4688562#1" fromLane="1" toLane="1" tl="1505184313" linkIndex="4"/>
    <connection from="-4688562#2" to="4688562#2" fromLane="1" toLane="1" tl="1505184313" linkIndex="5"/>
    <connection from="109462894#1" to="109462894#2" fromLane="0" toLane="0" tl="1278839005" linkIndex="2"/>
    <connection from="109462894#1" to="-109462894#1" fromLane="0" toLane="0" tl="1278839005" linkIndex="3"/>
    <connection from="109462899#0" to="109462899#1" fromLane="0" toLane="0" tl="1950481116" linkIndex="2"/>
    <connection from="109462899#0" to="-109462899#0" fromLane="0" toLane="0" tl="1950481116" linkIndex="3"/>
    <connection from="109462899#1" to="109462887#0" fromLane="0" toLane="0" tl="25552423" linkIndex="9"/>
    <connection from="109462900#0" to="109462900#1" fromLane="0" toLane="0" tl="1505184331" linkIndex="2"/>
    <connection from="109462900#0" to="-109462900#0" fromLane="0" toLane="0" tl="1505184331" linkIndex="3"/>
    <connection from="112538800#0" to="112538800#1" fromLane="0" toLane="0" tl="2377018002" linkIndex="0"/>
    <connection from="112538800#1" to="112538800#2" fromLane="0" toLane="0" tl="1278838937" linkIndex="0"/>
    <connection from="112538800#3" to="112538800#4" fromLane="0" toLane="0" tl="3323813669" linkIndex="0"/>
    <connection from="112538800#4" to="4353021#7" fromLane="0" toLane="0" tl="942080445" linkIndex="0"/>
    <connection from="112538800#4" to="112538800#5" fromLane="0" toLane="0" tl="942080445" linkIndex="1"/>
    <connection from="112538800#8" to="112538800#9" fromLane="0" toLane="0" tl="942080448" linkIndex="0"/>
    <connection from="112538800#8" to="4353019#0" fromLane="0" toLane="0" tl="942080448" linkIndex="1"/>
    <connection from="112538800#9" to="112538800#10" fromLane="0" toLane="0" tl="3235382373" linkIndex="0"/>
    <connection from="112538811#0" to="112538811#1" fromLane="0" toLane="0" tl="1278839038" linkIndex="0"/>
    <connection from="112538811#0" to="112538811#1" fromLane="1" toLane="1" tl="1278839038" linkIndex="1"/>
    <connection from="112538811#0" to="112538811#1" fromLane="2" toLane="2" tl="1278839038" linkIndex="2"/>
    <connection from="112538817#0" to="112538817#1" fromLane="0" toLane="0" tl="1915012228" linkIndex="0"/>
    <connection from="112538817#0" to="112538817#1" fromLane="1" toLane="1" tl="1915012228" linkIndex="1"/>
    <connection from="112538817#1" to="112538817#2" fromLane="0" toLane="0" tl="1278839019" linkIndex="0"/>
    <connection from="112538817#1" to="112538817#2" fromLane="1" toLane="1" tl="1278839019" linkIndex="1"/>
    <connection from="112538817#2" to="112538817#3" fromLane="0" toLane="0" tl="3428425011" linkIndex="0"/>
    <connection from="112538817#2" to="112538817#3" fromLane="1" toLane="1" tl="3428425011" linkIndex="1"/>
    <connection from="137206573" to="137216216#0" fromLane="0" toLane="0" tl="1505184322" linkIndex="0"/>
    <connection from="137206573" to="137216216#0" fromLane="1" toLane="1" tl="1505184322" linkIndex="1"/>
    <connection from="137216215#0" to="137216215#1" fromLane="0" toLane="0" tl="1505184328" linkIndex="0"/>
    <connection from="137216215#0" to="137216215#1" fromLane="1" toLane="1" tl="1505184328" linkIndex="1"/>
    <connection from="137216215#1" to="44572476" fromLane="0" toLane="0" tl="1505184323" linkIndex="0"/>
    <connection from="137216215#1" to="44572476" fromLane="1" toLane="1" tl="1505184323" linkIndex="1"/>
    <connection from="137216216#2" to="137216216#3" fromLane="0" toLane="0" tl="1505184327" linkIndex="0"/>
    <connection from="137216216#2" to="137216216#3" fromLane="1" toLane="1" tl="1505184327" linkIndex="1"/>
    <connection from="137519639" to="-137519639" fromLane="0" toLane="0" tl="1505184329" linkIndex="0"/>
    <connection from="164369266#0" to="164369266#1" fromLane="0" toLane="0" tl="1278838975" linkIndex="0"/>
    <connection from="164369266#0" to="164369266#1" fromLane="1" toLane="1" tl="1278838975" linkIndex="1"/>
    <connection from="164369266#0" to="164369266#1" fromLane="2" toLane="2" tl="1278838975" linkIndex="2"/>
    <connection from="185181407#0" to="185181407#1" fromLane="0" toLane="0" tl="1957490899" linkIndex="0"/>
    <connection from="185181407#0" to="185181407#1" fromLane="1" toLane="1" tl="1957490899" linkIndex="1"/>
    <connection from="185181407#0" to="185181407#1" fromLane="2" toLane="2" tl="1957490899" linkIndex="2"/>
    <connection from="23573546#11" to="23573546#12" fromLane="0" toLane="0" tl="1505184321" linkIndex="0"/>
    <connection from="23573546#6" to="23573546#7" fromLane="0" toLane="0" tl="1973690386" linkIndex="0"/>
    <connection from="252387586#0" to="252387586#1" fromLane="0" toLane="0" tl="3418035823" linkIndex="0"/>
    <connection from="252387586#1" to="7972771#0" fromLane="0" toLane="0" tl="25901895" linkIndex="0"/>
    <connection from="252387586#1" to="252387586#2" fromLane="0" toLane="0" tl="25901895" linkIndex="1"/>
    <connection from="252387586#2" to="252387586#3" fromLane="0" toLane="0" tl="3418035825" linkIndex="0"/>
    <connection from="252387586#3" to="44737268#0" fromLane="0" toLane="0" tl="25901925" linkIndex="2"/>
    <connection from="252387586#3" to="4353021#10" fromLane="0" toLane="0" tl="25901925" linkIndex="3"/>
    <connection from="29974989#0" to="104864841" fromLane="0" toLane="0" tl="25552412" linkIndex="0"/>
    <connection from="29974989#0" to="29974989#1" fromLane="0" toLane="0" tl="25552412" linkIndex="1"/>
    <connection from="29974989#0" to="29974989#1" fromLane="1" toLane="1" tl="25552412" linkIndex="2"/>
    <connection from="321307751" to="4526341#3" fromLane="0" toLane="0" tl="171946" linkIndex="0"/>
    <connection from="321307751" to="4526341#3" fromLane="0" toLane="1" tl="171946" linkIndex="1"/>
    <connection from="334731364#0" to="334731364#1" fromLane="0" toLane="0" tl="3428425014" linkIndex="0"/>
    <connection from="334731364#0" to="334731364#1" fromLane="1" toLane="1" tl="3428425014" linkIndex="1"/>
    <connection from="334731364#0" to="334731364#1" fromLane="2" toLane="2" tl="3428425014" linkIndex="2"/>
    <connection from="334731364#0" to="334731364#1" fromLane="3" toLane="3" tl="3428425014" linkIndex="3"/>
    <connection from="334731364#1" to="334731364#2" fromLane="0" toLane="0" tl="25552450" linkIndex="0"/>
    <connection from="334731364#1" to="334731364#2" fromLane="1" toLane="1" tl="25552450" linkIndex="1"/>
    <connection from="334731364#1" to="334731364#2" fromLane="2" toLane="2" tl="25552450" linkIndex="2"/>
    <connection from="334731364#1" to="334731364#2" fromLane="3" toLane="3" tl="25552450" linkIndex="3"/>
    <connection from="334731364#3" to="131450470" fromLane="0" toLane="0" tl="1278838994" linkIndex="0"/>
    <connection from="334731364#3" to="131450470" fromLane="1" toLane="1" tl="1278838994" linkIndex="1"/>
    <connection from="334731364#3" to="131450470" fromLane="2" toLane="2" tl="1278838994" linkIndex="2"/>
    <connection from="334731364#3" to="131450470" fromLane="3" toLane="3" tl="1278838994" linkIndex="3"/>
    <connection from="334731364#3" to="131450470" fromLane="3" toLane="4" tl="1278838994" linkIndex="4"/>
    <connection from="334731365#0" to="334731365#1" fromLane="0" toLane="0" tl="1278838976" linkIndex="0"/>
    <connection from="334731365#0" to="334731365#1" fromLane="1" toLane="1" tl="1278838976" linkIndex="1"/>
    <connection from="334731365#0" to="334731365#1" fromLane="2" toLane="2" tl="1278838976" linkIndex="2"/>
    <connection from="334731365#1" to="334731365#2" fromLane="0" toLane="0" tl="1915012227" linkIndex="0"/>
    <connection from="334731365#1" to="334731365#2" fromLane="1" toLane="1" tl="1915012227" linkIndex="1"/>
    <connection from="334731365#1" to="334731365#2" fromLane="2" toLane="2" tl="1915012227" linkIndex="2"/>
    <connection from="334731365#2" to="334731365#3" fromLane="0" toLane="0" tl="25903302" linkIndex="0"/>
    <connection from="334731365#2" to="334731365#3" fromLane="1" toLane="1" tl="25903302" linkIndex="1"/>
    <connection from="334731365#2" to="334731365#3" fromLane="2" toLane="2" tl="25903302" linkIndex="2"/>
    <connection from="334731366" to="44508935" fromLane="0" toLane="0" tl="25901950" linkIndex="0"/>
    <connection from="334731366" to="44508935" fromLane="1" toLane="1" tl="25901950" linkIndex="1"/>
    <connection from="334731366" to="44508934" fromLane="1" toLane="0" tl="25901950" linkIndex="2"/>
    <connection from="334731366" to="44508934" fromLane="2" toLane="1" tl="25901950" linkIndex="3"/>
    <connection from="335735810#0" to="335735810#1" fromLane="0" toLane="0" tl="3428425012" linkIndex="0"/>
    <connection from="335735810#0" to="335735810#1" fromLane="1" toLane="1" tl="3428425012" linkIndex="1"/>
    <connection from="335735810#1" to="335735810#2" fromLane="0" toLane="0" tl="1278839042" linkIndex="0"/>
    <connection from="335735810#1" to="335735810#2" fromLane="1" toLane="1" tl="1278839042" linkIndex="1"/>
    <connection from="335735810#2" to="335735810#3" fromLane="0" toLane="0" tl="2827804125" linkIndex="0"/>
    <connection from="335735810#2" to="335735810#3" fromLane="1" toLane="1" tl="2827804125" linkIndex="1"/>
    <connection from="335735810#3" to="112538800#0" fromLane="0" toLane="0" tl="25552447" linkIndex="5"/>
    <connection from="335735810#3" to="109462894#0" fromLane="0" toLane="0" tl="25552447" linkIndex="6"/>
    <connection from="335735810#3" to="4261173#0" fromLane="1" toLane="2" tl="25552447" linkIndex="7"/>
    <connection from="4078600#1" to="4078600#2" fromLane="0" toLane="0" tl="329991283" linkIndex="0"/>
    <connection from="4078600#1" to="4078600#2" fromLane="1" toLane="1" tl="329991283" linkIndex="1"/>
    <connection from="4078618#0" to="4078618#1" fromLane="0" toLane="0" tl="329991544" linkIndex="0"/>
    <connection from="4078618#0" to="4078618#1" fromLane="1" toLane="1" tl="329991544" linkIndex="1"/>
    <connection from="425034965#2" to="425034965#3" fromLane="0" toLane="0" tl="21627306" linkIndex="0"/>
    <connection from="425034965#2" to="425034965#3" fromLane="1" toLane="1" tl="21627306" linkIndex="1"/>
    <connection from="4261173#0" to="4261173#1" fromLane="0" toLane="0" tl="25552448" linkIndex="0"/>
    <connection from="4261173#0" to="4261173#1" fromLane="1" toLane="1" tl="25552448" linkIndex="1"/>
    <connection from="4261173#0" to="4261173#1" fromLane="2" toLane="2" tl="25552448" linkIndex="2"/>
    <connection from="4291303#0" to="4291303#1" fromLane="0" toLane="0" tl="1278839092" linkIndex="0"/>
    <connection from="4291303#0" to="4291303#1" fromLane="1" toLane="1" tl="1278839092" linkIndex="1"/>
    <connection from="4291303#0" to="4291303#1" fromLane="2" toLane="2" tl="1278839092" linkIndex="2"/>
    <connection from="4334163#0" to="4334163#1" fromLane="0" toLane="0" tl="554166728" linkIndex="0"/>
    <connection from="4334163#0" to="4334163#1" fromLane="1" toLane="1" tl="554166728" linkIndex="1"/>
    <connection from="43405582" to="4261173#0" fromLane="0" toLane="0" tl="25552447" linkIndex="0"/>
    <connection from="43405582" to="112538800#0" fromLane="1" toLane="0" tl="25552447" linkIndex="1"/>
    <connection from="43405582" to="109462894#0" fromLane="3" toLane="0" tl="25552447" linkIndex="2"/>
    <connection from="43407377#0" to="43407377#1" fromLane="0" toLane="0" tl="21627170" linkIndex="0"/>
    <connection from="43407377#0" to="43407377#1" fromLane="1" toLane="1" tl="21627170" linkIndex="1"/>
    <connection from="4353021#1" to="4353021#2" fromLane="0" toLane="0" tl="942080459" linkIndex="0"/>
    <connection from="4353021#10" to="334731365#0" fromLane="0" toLane="0" tl="25903309" linkIndex="0"/>
    <connection from="4353021#10" to="-44737270" fromLane="0" toLane="0" tl="25903309" linkIndex="1"/>
    <connection from="4353021#6" to="4353021#7" fromLane="0" toLane="0" tl="942080445" linkIndex="2"/>
    <connection from="4353021#6" to="112538800#5" fromLane="0" toLane="0" tl="942080445" linkIndex="3"/>
    <connection from="4353021#9" to="44737268#0" fromLane="0" toLane="0" tl="25901925" linkIndex="0"/>
    <connection from="4353021#9" to="4353021#10" fromLane="0" toLane="0" tl="25901925" linkIndex="1"/>
    <connection from="44508932#0" to="44508932#1" fromLane="0" toLane="0" tl="1278839084" linkIndex="0"/>
    <connection from="44508932#0" to="44508932#1" fromLane="1" toLane="1" tl="1278839084" linkIndex="1"/>
    <connection from="44508934" to="131450470" fromLane="0" toLane="3" tl="1278838994" linkIndex="5"/>
    <connection from="44508934" to="131450470" fromLane="1" toLane="4" tl="1278838994" linkIndex="6"/>
    <connection from="44508934" to="131450470" fromLane="1" toLane="5" tl="1278838994" linkIndex="7"/>
    <connection from="44572474#0" to="44572474#1" fromLane="0" toLane="0" tl="1505184314" linkIndex="0"/>
    <connection from="44572474#0" to="44572474#1" fromLane="1" toLane="1" tl="1505184314" linkIndex="1"/>
    <connection from="44572474#0" to="-44572474#0" fromLane="1" toLane="1" tl="1505184314" linkIndex="2"/>
    <connection from="44572475#0" to="44572475#1" fromLane="0" toLane="0" tl="1505184316" linkIndex="3"/>
    <connection from="44572475#0" to="44572475#1" fromLane="1" toLane="1" tl="1505184316" linkIndex="4"/>
    <connection from="44572475#0" to="-44572475#0" fromLane="1" toLane="1" tl="1505184316" linkIndex="5"/>
    <connection from="44572475#1" to="44572475#2" fromLane="0" toLane="0" tl="1505184318" linkIndex="3"/>
    <connection from="44572475#1" to="44572475#2" fromLane="1" toLane="1" tl="1505184318" linkIndex="4"/>
    <connection from="44572475#1" to="-44572475#1" fromLane="1" toLane="1" tl="1505184318" linkIndex="5"/>
    <connection from="44737268#1" to="44737268#2" fromLane="0" toLane="0" tl="345538475" linkIndex="0"/>
    <connection from="44737268#2" to="44737268#3" fromLane="0" toLane="0" tl="1278839131" linkIndex="0"/>
    <connection from="44737270" to="334731365#0" fromLane="0" toLane="1" tl="25903309" linkIndex="2"/>
    <connection from="44737270" to="334731365#0" fromLane="0" toLane="2" tl="25903309" linkIndex="3"/>
    <connection from="44737270" to="-44737270" fromLane="0" toLane="0" tl="25903309" linkIndex="4"/>
    <connection from="4526341#10" to="109462887#0" fromLane="0" toLane="0" tl="25552423" linkIndex="3"/>
    <connection from="4526341#10" to="4526341#11" fromLane="0" toLane="0" tl="25552423" linkIndex="4"/>
    <connection from="4526341#10" to="4526341#11" fromLane="1" toLane="1" tl="25552423" linkIndex="5"/>