<?xml version="1.0" encoding="UTF-8"?>

<configuration xmlns:xsi="http://www.w3.org/2001/XMLSchema-instance" xsi:noNamespaceSchemaLocation="http://sumo.dlr.de/xsd/od2tripsConfiguration.xsd">

	<configuration>
		<configuration-file value="radial16_XS_Bastra_rand05x2_time2000_fulltraffic_logit10.od.conf"/>
	</configuration>

	<input>
		<net-file value="radial16_XS_Bastra_rand05x2_time2000_fulltraffic_logit10.net.xml"/>
		<od-amitran-files value="radial16_XS_Bastra_rand05x2_time2000_fulltraffic_logit10.odmat.xml"/>
	</input>

	<output>
		<output-file value="radial16_XS_Bastra_rand05x2_time2000_fulltraffic_logit10.trip.xml"/>
		<ignore-vehicle-type value="true"/>
	</output>

	<defaults>
		<departlane value="best"/>
		<departspeed value="0"/>
		<!-- <arrivalpos value="free"/> -->
	</defaults>

</configuration>
