<?xml version="1.0" encoding="UTF-8"?>

<!-- generated on Sun Feb  5 11:08:31 2017 by SUMO netconvert Version 0.27.1
<?xml version="1.0" encoding="UTF-8"?>

<configuration xmlns:xsi="http://www.w3.org/2001/XMLSchema-instance" xsi:noNamespaceSchemaLocation="http://sumo.dlr.de/xsd/netconvertConfiguration.xsd">

    <input>
        <type-files value="netconvert.osm.types.xml"/>
        <osm-files value="../osm/madrid_barrio_salamanca.osm"/>
    </input>

    <output>
        <output-file value="madrid_barrio_salamanca.net.xml"/>
        <plain-output-prefix value="madrid_barrio_salamanca"/>
        <output.street-names value="true"/>
        <output.original-names value="true"/>
    </output>

    <projection>
        <proj.utm value="true"/>
        <proj.plain-geo value="true"/>
    </projection>

    <edge_removal>
        <remove-edges.by-type value="highway.bridleway,highway.cycleway,highway.footway,highway.ford,highway.path,highway.pedestrian,highway.service,highway.stairs,highway.step,highway.steps,highway.track,railway.light_rail,railway.preserved,railway.rail,railway.subway,railway.tram"/>
    </edge_removal>

</configuration>
-->

<edges version="0.27" xmlns:xsi="http://www.w3.org/2001/XMLSchema-instance" xsi:noNamespaceSchemaLocation="http://sumo.dlr.de/xsd/edges_file.xsd">
    <edge id="-109462886" from="1505184330" to="25552416" name="Calle de Goya" priority="6" type="highway.tertiary" numLanes="1" speed="13.89" disallow="tram rail_urban rail rail_electric ship"/>
    <edge id="-109462887#0" from="2620304879" to="25552423" name="Calle de Goya" priority="6" type="highway.tertiary" numLanes="1" speed="13.89" disallow="tram rail_urban rail rail_electric ship"/>
    <edge id="-109462887#1" from="25552421" to="2620304879" name="Calle de Goya" priority="6" type="highway.tertiary" numLanes="1" speed="13.89" disallow="tram rail_urban rail rail_electric ship"/>
    <edge id="-109462888" from="25552388" to="29491599" name="Calle de Goya" priority="6" type="highway.tertiary" numLanes="1" speed="13.89" disallow="tram rail_urban rail rail_electric ship"/>
    <edge id="-109462892#0" from="1950481109" to="25552388" name="Calle de Goya" priority="6" type="highway.tertiary" numLanes="1" speed="13.89" disallow="tram rail_urban rail rail_electric ship"/>
    <edge id="-109462892#1" from="319711771" to="1950481109" name="Calle de Goya" priority="6" type="highway.tertiary" numLanes="1" speed="13.89" disallow="tram rail_urban rail rail_electric ship"/>
    <edge id="-109462892#2" from="25552377" to="319711771" name="Calle de Goya" priority="6" type="highway.tertiary" numLanes="1" speed="13.89" disallow="tram rail_urban rail rail_electric ship"/>
    <edge id="-109462894#0" from="1555729961" to="25552447" name="Calle de Goya" priority="6" type="highway.tertiary" numLanes="1" speed="13.89" disallow="tram rail_urban rail rail_electric ship"/>
    <edge id="-109462894#1" from="1278839005" to="1555729961" name="Calle de Goya" priority="6" type="highway.tertiary" numLanes="1" speed="13.89" disallow="tram rail_urban rail rail_electric ship"/>
    <edge id="-109462894#2" from="25552446" to="1278839005" name="Calle de Goya" priority="6" type="highway.tertiary" numLanes="1" speed="13.89" disallow="tram rail_urban rail rail_electric ship"/>
    <edge id="-109462895" from="25552418" to="25552421" name="Calle de Goya" priority="6" type="highway.tertiary" numLanes="1" speed="13.89" shape="-3.681515,40.425060 -3.682646,40.425099 -3.682781,40.425107" disallow="tram rail_urban rail rail_electric ship"/>
    <edge id="-109462899#0" from="1950481116" to="25552425" name="Calle de Goya" priority="6" type="highway.tertiary" numLanes="1" speed="13.89" shape="-3.684368,40.425198 -3.685042,40.425232 -3.685224,40.425242 -3.685369,40.425249" disallow="tram rail_urban rail rail_electric ship"/>
    <edge id="-109462899#1" from="25552423" to="1950481116" name="Calle de Goya" priority="6" type="highway.tertiary" numLanes="1" speed="13.89" disallow="tram rail_urban rail rail_electric ship"/>
    <edge id="-109462900#0" from="1505184331" to="25552418" name="Calle de Goya" priority="6" type="highway.tertiary" numLanes="1" speed="13.89" shape="-3.680417,40.425014 -3.681378,40.425055 -3.681515,40.425060" disallow="tram rail_urban rail rail_electric ship"/>
    <edge id="-109462900#1" from="25552416" to="1505184331" name="Calle de Goya" priority="6" type="highway.tertiary" numLanes="1" speed="13.89" disallow="tram rail_urban rail rail_electric ship"/>
    <edge id="-121797007" from="4575801327" to="4575801321" name="Puente Enrique de la Mata Gorostizaga" priority="6" type="highway.tertiary" numLanes="2" speed="13.89" shape="-3.686912,40.432990 -3.687985,40.433042 -3.688453,40.433051 -3.690417,40.432982" disallow="tram rail_urban rail rail_electric ship"/>
    <edge id="-131700744" from="25552377" to="1449163754" name="Calle de Narváez" priority="6" type="highway.tertiary" numLanes="1" speed="13.89" disallow="tram rail_urban rail rail_electric ship"/>
    <edge id="-137519639#0" from="1505184329" to="1505184330" name="Calle de Goya" priority="6" type="highway.tertiary" numLanes="1" speed="13.89" disallow="tram rail_urban rail rail_electric ship"/>
    <edge id="-137519639#1" from="25552414" to="1505184329" name="Calle de Goya" priority="6" type="highway.tertiary" numLanes="1" speed="13.89" disallow="tram rail_urban rail rail_electric ship"/>
    <edge id="-137519639#2" from="29491599" to="25552414" name="Calle de Goya" priority="6" type="highway.tertiary" numLanes="1" speed="13.89" shape="-3.677867,40.424896 -3.678530,40.424929 -3.678664,40.424934" disallow="tram rail_urban rail rail_electric ship"/>
    <edge id="-14567697" from="1689543057" to="25902584" name="Calle de Diego de León" priority="6" type="highway.tertiary" numLanes="1" speed="13.89" shape="-3.686378,40.435091 -3.686466,40.435098 -3.686546,40.435118" disallow="tram rail_urban rail rail_electric ship"/>
    <edge id="-14574696#0" from="143614657" to="27512858" name="Calle de Ferrer del Río" priority="4" type="highway.residential" numLanes="1" speed="13.89" disallow="tram rail_urban rail rail_electric ship"/>
    <edge id="-14574696#1" from="143659340" to="143614657" name="Calle de Ferrer del Río" priority="4" type="highway.residential" numLanes="1" speed="13.89" disallow="tram rail_urban rail rail_electric ship"/>
    <edge id="-14574696#2" from="143657998" to="143659340" name="Calle de Ferrer del Río" priority="4" type="highway.residential" numLanes="1" speed="13.89" disallow="tram rail_urban rail rail_electric ship"/>
    <edge id="-14574696#3" from="143657506" to="143657998" name="Calle de Ferrer del Río" priority="4" type="highway.residential" numLanes="1" speed="13.89" shape="-3.671448,40.434890 -3.671350,40.434996 -3.670903,40.435370" disallow="tram rail_urban rail rail_electric ship"/>
    <edge id="-14574696#4" from="143656438" to="143657506" name="Calle de Ferrer del Río" priority="4" type="highway.residential" numLanes="1" speed="13.89" disallow="tram rail_urban rail rail_electric ship"/>
    <edge id="-14574696#5" from="2533399078" to="143656438" name="Calle de Ferrer del Río" priority="4" type="highway.residential" numLanes="1" speed="13.89" disallow="tram rail_urban rail rail_electric ship"/>
    <edge id="-14577982#0" from="143656434" to="143656433" name="Calle de Ardemans" priority="4" type="highway.residential" numLanes="1" speed="13.89" shape="-3.671305,40.433335 -3.671268,40.433288 -3.670901,40.432832" disallow="tram rail_urban rail rail_electric ship"/>
    <edge id="-14577982#1" from="143656435" to="143656434" name="Calle de Ardemans" priority="4" type="highway.residential" numLanes="1" speed="13.89" shape="-3.671699,40.433836 -3.671355,40.433399 -3.671305,40.433335" disallow="tram rail_urban rail rail_electric ship"/>
    <edge id="-14577982#2" from="143656438" to="143656435" name="Calle de Ardemans" priority="4" type="highway.residential" numLanes="1" speed="13.89" disallow="tram rail_urban rail rail_electric ship"/>
    <edge id="-15106270" from="149205252" to="27512859" name="Calle de María Teresa" priority="4" type="highway.residential" numLanes="1" speed="13.89" disallow="tram rail_urban rail rail_electric ship"/>
    <edge id="-15241571" from="26784081" to="26784091" priority="4" type="highway.residential" numLanes="1" speed="13.89" disallow="tram rail_urban rail rail_electric ship"/>
    <edge id="-198644581#0" from="1950481125" to="25552446" name="Calle de Goya" priority="6" type="highway.tertiary" numLanes="1" speed="13.89" disallow="tram rail_urban rail rail_electric ship"/>
    <edge id="-198644581#1" from="25552425" to="1950481125" name="Calle de Goya" priority="6" type="highway.tertiary" numLanes="1" speed="13.89" disallow="tram rail_urban rail rail_electric ship"/>
    <edge id="-226458104" from="26784070" to="26784001" priority="4" type="highway.residential" numLanes="1" speed="13.89" disallow="tram rail_urban rail rail_electric ship"/>
    <edge id="-23086702" from="1537861047" to="2525967100" name="Avenida de los Toreros" priority="6" type="highway.tertiary" numLanes="2" speed="13.89" disallow="tram rail_urban rail rail_electric ship"/>
    <edge id="-23500579" from="158849456" to="254504442" name="Calle Maestro Vives" priority="4" type="highway.residential" numLanes="1" speed="13.89" disallow="tram rail_urban rail rail_electric ship"/>
    <edge id="-23689617" from="25902700" to="25902680" name="Calle Álvarez de Baena" priority="4" type="highway.residential" numLanes="1" speed="13.89" disallow="tram rail_urban rail rail_electric ship"/>
    <edge id="-248346183" from="25552375" to="25552373" name="Calle de Alcalá" priority="9" type="highway.primary" numLanes="3" speed="13.89" disallow="tram rail_urban rail rail_electric ship"/>
    <edge id="-262302254" from="25902469" to="25902468" priority="6" type="highway.tertiary" numLanes="1" speed="13.89" shape="-3.687658,40.436062 -3.687536,40.436105 -3.687447,40.436104" disallow="tram rail_urban rail rail_electric ship"/>
    <edge id="-307592940" from="27509104" to="2533399078" name="Calle de Ferrer del Río" priority="4" type="highway.residential" numLanes="1" speed="13.89" disallow="tram rail_urban rail rail_electric ship"/>
    <edge id="-310280048" from="2383701849" to="2298649702" name="Calle de Alcalá" priority="9" type="highway.primary" numLanes="2" speed="13.89" disallow="tram rail_urban rail rail_electric ship"/>
    <edge id="-320826398" from="1572572873" to="3274732569" name="Calle de Goya" priority="6" type="highway.tertiary" numLanes="1" speed="13.89" disallow="tram rail_urban rail rail_electric ship"/>
    <edge id="-320826399#0" from="25552384" to="25552383" name="Calle de Goya" priority="6" type="highway.tertiary" numLanes="1" speed="13.89" shape="-3.670920,40.424542 -3.671039,40.424553 -3.672488,40.424612 -3.672601,40.424618" disallow="tram rail_urban rail rail_electric ship"/>
    <edge id="-320826399#1" from="3274732569" to="25552384" name="Calle de Goya" priority="6" type="highway.tertiary" numLanes="1" speed="13.89" disallow="tram rail_urban rail rail_electric ship"/>
    <edge id="-320844400#0" from="29741515" to="28096856" name="Calle de José Ortega y Gasset" priority="6" type="highway.tertiary" numLanes="1" speed="13.89" disallow="tram rail_urban rail rail_electric ship"/>
    <edge id="-320844400#1" from="29480652" to="29741515" name="Calle de José Ortega y Gasset" priority="6" type="highway.tertiary" numLanes="1" speed="13.89" disallow="tram rail_urban rail rail_electric ship"/>
    <edge id="-320844400#2" from="1505184369" to="29480652" name="Calle de José Ortega y Gasset" priority="6" type="highway.tertiary" numLanes="1" speed="13.89" disallow="tram rail_urban rail rail_electric ship"/>
    <edge id="-320844404#0" from="28096857" to="28096856" name="Calle del Conde de Peñalver" priority="6" type="highway.tertiary" numLanes="1" speed="13.89" disallow="tram rail_urban rail rail_electric ship"/>
    <edge id="-320844404#1" from="28096868" to="28096857" name="Calle del Conde de Peñalver" priority="6" type="highway.tertiary" numLanes="1" speed="13.89" disallow="tram rail_urban rail rail_electric ship"/>
    <edge id="-320844404#2" from="327471530" to="28096868" name="Calle del Conde de Peñalver" priority="6" type="highway.tertiary" numLanes="1" speed="13.89" disallow="tram rail_urban rail rail_electric ship"/>
    <edge id="-320844404#3" from="28096866" to="327471530" name="Calle del Conde de Peñalver" priority="6" type="highway.tertiary" numLanes="1" speed="13.89" disallow="tram rail_urban rail rail_electric ship"/>
    <edge id="-321378019#0" from="2310055801" to="1537861047" name="Calle de Cartagena" priority="6" type="highway.tertiary" numLanes="1" speed="13.89" shape="-3.670490,40.432446 -3.670497,40.432245 -3.670504,40.432031 -3.670508,40.431899" disallow="tram rail_urban rail rail_electric ship"/>
    <edge id="-321378019#1" from="60015591" to="2310055801" name="Calle de Cartagena" priority="6" type="highway.tertiary" numLanes="1" speed="13.89" disallow="tram rail_urban rail rail_electric ship"/>
    <edge id="-341820570" from="29484167" to="3489014053" name="Calle de Fernán González" priority="4" type="highway.residential" numLanes="1" speed="13.89" shape="-3.674259,40.423293 -3.674252,40.423362 -3.674238,40.423514" disallow="tram rail_urban rail rail_electric ship"/>
    <edge id="-355261841#0" from="996184054" to="3608699035" name="Calle de Agustina de Aragón" priority="4" type="highway.residential" numLanes="1" speed="13.89" disallow="tram rail_urban rail rail_electric ship"/>
    <edge id="-355261841#1" from="1998443942" to="996184054" name="Calle de Agustina de Aragón" priority="4" type="highway.residential" numLanes="1" speed="13.89" disallow="tram rail_urban rail rail_electric ship"/>
    <edge id="-355261841#2" from="143602461" to="1998443942" name="Calle de Agustina de Aragón" priority="4" type="highway.residential" numLanes="1" speed="13.89" disallow="tram rail_urban rail rail_electric ship"/>
    <edge id="-365705720#0" from="3423479080" to="3697043156" name="Calle de Narváez" priority="6" type="highway.tertiary" numLanes="1" speed="13.89" disallow="tram rail_urban rail rail_electric ship"/>
    <edge id="-365705720#1" from="1449163754" to="3423479080" name="Calle de Narváez" priority="6" type="highway.tertiary" numLanes="1" speed="13.89" disallow="tram rail_urban rail rail_electric ship"/>
    <edge id="-367214633#0" from="1505106055" to="1505106056" name="Calle de Diego de León" priority="6" type="highway.tertiary" numLanes="1" speed="13.89" disallow="tram rail_urban rail rail_electric ship"/>
    <edge id="-367214633#1" from="143495443" to="1505106055" name="Calle de Diego de León" priority="6" type="highway.tertiary" numLanes="1" speed="13.89" disallow="tram rail_urban rail rail_electric ship"/>
    <edge id="-367214633#2" from="327482551" to="143495443" name="Calle de Diego de León" priority="6" type="highway.tertiary" numLanes="1" speed="13.89" disallow="tram rail_urban rail rail_electric ship"/>
    <edge id="-367214633#3" from="143496213" to="327482551" name="Calle de Diego de León" priority="6" type="highway.tertiary" numLanes="1" speed="13.89" disallow="tram rail_urban rail rail_electric ship"/>
    <edge id="-367214633#4" from="2533399079" to="143496213" name="Calle de Diego de León" priority="6" type="highway.tertiary" numLanes="1" speed="13.89" disallow="tram rail_urban rail rail_electric ship"/>
    <edge id="-367214633#5" from="29513466" to="2533399079" name="Calle de Diego de León" priority="6" type="highway.tertiary" numLanes="1" speed="13.89" disallow="tram rail_urban rail rail_electric ship"/>
    <edge id="-417988256#0" from="3268713831" to="29739619" name="Calle de Diego de León" priority="6" type="highway.tertiary" numLanes="1" speed="13.89" disallow="tram rail_urban rail rail_electric ship"/>
    <edge id="-417988256#1" from="143504242" to="3268713831" name="Calle de Diego de León" priority="6" type="highway.tertiary" numLanes="1" speed="13.89" disallow="tram rail_urban rail rail_electric ship"/>
    <edge id="-417988257" from="143504243" to="143504242" name="Calle de Diego de León" priority="6" type="highway.tertiary" numLanes="1" speed="13.89" shape="-3.680712,40.434819 -3.681879,40.434880 -3.681967,40.434884" disallow="tram rail_urban rail rail_electric ship"/>
    <edge id="-417988258#0" from="1505106058" to="143504243" name="Calle de Diego de León" priority="6" type="highway.tertiary" numLanes="1" speed="13.89" disallow="tram rail_urban rail rail_electric ship"/>
    <edge id="-417988258#1" from="29802999" to="1505106058" name="Calle de Diego de León" priority="6" type="highway.tertiary" numLanes="1" speed="13.89" disallow="tram rail_urban rail rail_electric ship"/>
    <edge id="-417988260" from="1505106056" to="29802999" name="Calle de Diego de León" priority="6" type="highway.tertiary" numLanes="1" speed="13.89" disallow="tram rail_urban rail rail_electric ship"/>
    <edge id="-420262318" from="1505184376" to="28096484" name="Calle de José Ortega y Gasset" priority="6" type="highway.tertiary" numLanes="1" speed="13.89" disallow="tram rail_urban rail rail_electric ship"/>
    <edge id="-420269263#0" from="25552379" to="929335624" name="Calle de Goya" priority="6" type="highway.tertiary" numLanes="1" speed="13.89" shape="-3.674127,40.424691 -3.674235,40.424698 -3.675058,40.424749" disallow="tram rail_urban rail rail_electric ship"/>
    <edge id="-420269263#1" from="996183940" to="25552379" name="Calle de Goya" priority="6" type="highway.tertiary" numLanes="1" speed="13.89" disallow="tram rail_urban rail rail_electric ship"/>
    <edge id="-420655420#0" from="3268713838" to="1689543057" name="Calle de Diego de León" priority="6" type="highway.tertiary" numLanes="1" speed="13.89" disallow="tram rail_urban rail rail_electric ship"/>
    <edge id="-420655420#1" from="143497929" to="3268713838" name="Calle de Diego de León" priority="6" type="highway.tertiary" numLanes="1" speed="13.89" disallow="tram rail_urban rail rail_electric ship"/>
    <edge id="-420655420#2" from="3268713837" to="143497929" name="Calle de Diego de León" priority="6" type="highway.tertiary" numLanes="1" speed="13.89" disallow="tram rail_urban rail rail_electric ship"/>
    <edge id="-420655420#3" from="3268713836" to="3268713837" name="Calle de Diego de León" priority="6" type="highway.tertiary" numLanes="1" speed="13.89" disallow="tram rail_urban rail rail_electric ship"/>
    <edge id="-420655420#4" from="143497066" to="3268713836" name="Calle de Diego de León" priority="6" type="highway.tertiary" numLanes="1" speed="13.89" disallow="tram rail_urban rail rail_electric ship"/>
    <edge id="-420655420#5" from="3268713834" to="143497066" name="Calle de Diego de León" priority="6" type="highway.tertiary" numLanes="1" speed="13.89" disallow="tram rail_urban rail rail_electric ship"/>
    <edge id="-420655420#6" from="3268713833" to="3268713834" name="Calle de Diego de León" priority="6" type="highway.tertiary" numLanes="1" speed="13.89" disallow="tram rail_urban rail rail_electric ship"/>
    <edge id="-420655420#7" from="29739619" to="3268713833" name="Calle de Diego de León" priority="6" type="highway.tertiary" numLanes="1" speed="13.89" disallow="tram rail_urban rail rail_electric ship"/>
    <edge id="-421900008" from="21627284" to="21627177" name="Calle de Narváez" priority="6" type="highway.tertiary" numLanes="1" speed="13.89" disallow="tram rail_urban rail rail_electric ship"/>
    <edge id="-428732053" from="25552390" to="25552375" name="Calle de Alcalá" priority="9" type="highway.primary" numLanes="2" speed="13.89" disallow="tram rail_urban rail rail_electric ship"/>
    <edge id="-428833183#0" from="4340469991" to="21627284" name="Calle de Narváez" priority="6" type="highway.tertiary" numLanes="1" speed="13.89" shape="-3.675942,40.422083 -3.675975,40.421678 -3.675989,40.421581" disallow="tram rail_urban rail rail_electric ship"/>
    <edge id="-428833183#1" from="3484776628" to="4340469991" name="Calle de Narváez" priority="6" type="highway.tertiary" numLanes="1" speed="13.89" disallow="tram rail_urban rail rail_electric ship"/>
    <edge id="-428833183#2" from="60134601" to="3484776628" name="Calle de Narváez" priority="6" type="highway.tertiary" numLanes="1" speed="13.89" disallow="tram rail_urban rail rail_electric ship"/>
    <edge id="-428833183#3" from="3484776639" to="60134601" name="Calle de Narváez" priority="6" type="highway.tertiary" numLanes="1" speed="13.89" disallow="tram rail_urban rail rail_electric ship"/>
    <edge id="-428833183#4" from="255289590" to="3484776639" name="Calle de Narváez" priority="6" type="highway.tertiary" numLanes="1" speed="13.89" disallow="tram rail_urban rail rail_electric ship"/>
    <edge id="-430838879" from="25552383" to="996183940" name="Calle de Goya" priority="6" type="highway.tertiary" numLanes="1" speed="13.89" shape="-3.672601,40.424618 -3.673059,40.424640 -3.673313,40.424652" disallow="tram rail_urban rail rail_electric ship"/>
    <edge id="-43405584#0" from="1689543018" to="25902327" name="Calle de José Ortega y Gasset" priority="6" type="highway.tertiary" numLanes="1" speed="13.89" disallow="tram rail_urban rail rail_electric ship"/>
    <edge id="-43405584#1" from="28097220" to="1689543018" name="Calle de José Ortega y Gasset" priority="6" type="highway.tertiary" numLanes="1" speed="13.89" shape="-3.685803,40.430405 -3.686698,40.430451 -3.686758,40.430454" disallow="tram rail_urban rail rail_electric ship"/>
    <edge id="-43405584#2" from="28097221" to="28097220" name="Calle de José Ortega y Gasset" priority="6" type="highway.tertiary" numLanes="1" speed="13.89" disallow="tram rail_urban rail rail_electric ship"/>
    <edge id="-43405584#3" from="28097222" to="28097221" name="Calle de José Ortega y Gasset" priority="6" type="highway.tertiary" numLanes="1" speed="13.89" disallow="tram rail_urban rail rail_electric ship"/>
    <edge id="-43405585#0" from="28096621" to="28097222" name="Calle de José Ortega y Gasset" priority="6" type="highway.tertiary" numLanes="1" speed="13.89" disallow="tram rail_urban rail rail_electric ship"/>
    <edge id="-43405585#1" from="28096484" to="28096621" name="Calle de José Ortega y Gasset" priority="6" type="highway.tertiary" numLanes="1" speed="13.89" disallow="tram rail_urban rail rail_electric ship"/>
    <edge id="-43405589#0" from="28097323" to="29481078" name="Calle de José Ortega y Gasset" priority="6" type="highway.tertiary" numLanes="1" speed="13.89" disallow="tram rail_urban rail rail_electric ship"/>
    <edge id="-43405589#1" from="28096838" to="28097323" name="Calle de José Ortega y Gasset" priority="6" type="highway.tertiary" numLanes="1" speed="13.89" disallow="tram rail_urban rail rail_electric ship"/>
    <edge id="-43405589#2" from="28096856" to="28096838" name="Calle de José Ortega y Gasset" priority="6" type="highway.tertiary" numLanes="1" speed="13.89" disallow="tram rail_urban rail rail_electric ship"/>
    <edge id="-43798349#0" from="1223809798" to="25902434" name="Paseo del General Martínez Campos" priority="6" type="highway.tertiary" numLanes="2" speed="13.89" disallow="tram rail_urban rail rail_electric ship"/>
    <edge id="-43798349#1" from="25902450" to="1223809798" name="Paseo del General Martínez Campos" priority="6" type="highway.tertiary" numLanes="2" speed="13.89" disallow="tram rail_urban rail rail_electric ship"/>
    <edge id="-44335829#0" from="319711768" to="25552396" name="Calle de Alcalá" priority="9" type="highway.primary" numLanes="2" speed="13.89" disallow="tram rail_urban rail rail_electric ship"/>
    <edge id="-44335829#1" from="29491601" to="319711768" name="Calle de Alcalá" priority="9" type="highway.primary" numLanes="2" speed="13.89" disallow="tram rail_urban rail rail_electric ship"/>
    <edge id="-44335829#2" from="2298649702" to="29491601" name="Calle de Alcalá" priority="9" type="highway.primary" numLanes="2" speed="13.89" disallow="tram rail_urban rail rail_electric ship"/>
    <edge id="-44335830" from="25552396" to="25552394" name="Calle de Alcalá" priority="9" type="highway.primary" numLanes="2" speed="13.89" disallow="tram rail_urban rail rail_electric ship"/>
    <edge id="-44335831" from="3697043156" to="327462536" name="Calle de Narváez" priority="6" type="highway.tertiary" numLanes="1" speed="13.89" disallow="tram rail_urban rail rail_electric ship"/>
    <edge id="-44335832#0" from="319711777" to="327462530" name="Calle de Narváez" priority="6" type="highway.tertiary" numLanes="1" speed="13.89" disallow="tram rail_urban rail rail_electric ship"/>
    <edge id="-44335832#1" from="327462536" to="319711777" name="Calle de Narváez" priority="6" type="highway.tertiary" numLanes="1" speed="13.89" disallow="tram rail_urban rail rail_electric ship"/>
    <edge id="-44508937" from="929335624" to="25552377" name="Calle de Goya" priority="6" type="highway.tertiary" numLanes="1" speed="13.89" disallow="tram rail_urban rail rail_electric ship"/>
    <edge id="-44508938#0" from="329991486" to="25552377" name="Calle de Alcalá" priority="9" type="highway.primary" numLanes="2" speed="13.89" disallow="tram rail_urban rail rail_electric ship"/>
    <edge id="-44508938#1" from="319711767" to="329991486" name="Calle de Alcalá" priority="9" type="highway.primary" numLanes="2" speed="13.89" disallow="tram rail_urban rail rail_electric ship"/>
    <edge id="-44508938#2" from="25552394" to="319711767" name="Calle de Alcalá" priority="9" type="highway.primary" numLanes="2" speed="13.89" disallow="tram rail_urban rail rail_electric ship"/>
    <edge id="-44536100#0" from="21627185" to="1963430764" name="Calle de Narváez" priority="6" type="highway.tertiary" numLanes="1" speed="13.89" disallow="tram rail_urban rail rail_electric ship"/>
    <edge id="-44536100#1" from="3697043154" to="21627185" name="Calle de Narváez" priority="6" type="highway.tertiary" numLanes="1" speed="13.89" shape="-3.676039,40.421011 -3.676078,40.420464 -3.676083,40.420392" disallow="tram rail_urban rail rail_electric ship"/>
    <edge id="-44536100#2" from="1209330860" to="3697043154" name="Calle de Narváez" priority="6" type="highway.tertiary" numLanes="1" speed="13.89" shape="-3.676009,40.421432 -3.676028,40.421161 -3.676039,40.421011" disallow="tram rail_urban rail rail_electric ship"/>
    <edge id="-44536100#3" from="21627177" to="1209330860" name="Calle de Narváez" priority="6" type="highway.tertiary" numLanes="1" speed="13.89" disallow="tram rail_urban rail rail_electric ship"/>
    <edge id="-44536103" from="143508736" to="28096866" name="Calle del Conde de Peñalver" priority="6" type="highway.tertiary" numLanes="1" speed="13.89" disallow="tram rail_urban rail rail_electric ship"/>
    <edge id="-44536104" from="27512870" to="29513466" name="Calle de Diego de León" priority="6" type="highway.tertiary" numLanes="1" speed="13.89" shape="-3.674479,40.434510 -3.674670,40.434513 -3.674904,40.434516" disallow="tram rail_urban rail rail_electric ship"/>
    <edge id="-44572472#0" from="1950481102" to="2383701849" name="Calle de Alcalá" priority="9" type="highway.primary" numLanes="2" speed="13.89" disallow="tram rail_urban rail rail_electric ship"/>
    <edge id="-44572472#1" from="1505184315" to="1950481102" name="Calle de Alcalá" priority="9" type="highway.primary" numLanes="2" speed="13.89" disallow="tram rail_urban rail rail_electric ship"/>
    <edge id="-44572472#2" from="2383701848" to="1505184315" name="Calle de Alcalá" priority="9" type="highway.primary" numLanes="2" speed="13.89" disallow="tram rail_urban rail rail_electric ship"/>
    <edge id="-44572474#0" from="1505184314" to="2383701848" name="Calle de Alcalá" priority="9" type="highway.primary" numLanes="2" speed="13.89" disallow="tram rail_urban rail rail_electric ship"/>
    <edge id="-44572474#1" from="2383701847" to="1505184314" name="Calle de Alcalá" priority="9" type="highway.primary" numLanes="2" speed="13.89" disallow="tram rail_urban rail rail_electric ship"/>
    <edge id="-44572475#0" from="1505184316" to="2383701848" name="Calle del Príncipe de Vergara" priority="7" type="highway.secondary" numLanes="2" speed="13.89" disallow="tram rail_urban rail rail_electric ship"/>
    <edge id="-44572475#1" from="1505184318" to="1505184316" name="Calle del Príncipe de Vergara" priority="7" type="highway.secondary" numLanes="2" speed="13.89" disallow="tram rail_urban rail rail_electric ship"/>
    <edge id="-44572475#2" from="29484171" to="1505184318" name="Calle del Príncipe de Vergara" priority="7" type="highway.secondary" numLanes="2" speed="13.89" disallow="tram rail_urban rail rail_electric ship"/>
    <edge id="-451978384" from="996184096" to="996183696" name="Calle de Luis Villa" priority="4" type="highway.residential" numLanes="1" speed="13.89" disallow="tram rail_urban rail rail_electric ship"/>
    <edge id="-45314138" from="29513466" to="143508736" name="Calle del Conde de Peñalver" priority="6" type="highway.tertiary" numLanes="1" speed="13.89" shape="-3.674904,40.434516 -3.674920,40.434372 -3.675005,40.433467" disallow="tram rail_urban rail rail_electric ship"/>
    <edge id="-45756883#0" from="60015592" to="60015591" name="Calle de Cartagena" priority="6" type="highway.tertiary" numLanes="1" speed="13.89" disallow="tram rail_urban rail rail_electric ship"/>
    <edge id="-45756883#1" from="1459328486" to="60015592" name="Calle de Cartagena" priority="6" type="highway.tertiary" numLanes="1" speed="13.89" shape="-3.670344,40.434444 -3.670365,40.434334 -3.670450,40.433751" disallow="tram rail_urban rail rail_electric ship"/>
    <edge id="-45756883#10" from="27512808" to="143608990" name="Calle de Cartagena" priority="6" type="highway.tertiary" numLanes="1" speed="13.89" disallow="tram rail_urban rail rail_electric ship"/>