<?xml version="1.0" encoding="UTF-8"?>

<configuration xmlns:xsi="http://www.w3.org/2001/XMLSchema-instance" xsi:noNamespaceSchemaLocation="http://sumo.dlr.de/xsd/od2tripsConfiguration.xsd">

	<configuration>
		<configuration-file value="alcalahenares_3L3h_nomaps_timeALL_taz5-taz50S_fore1-1-4-10_incident_01.od.conf"/>
	</configuration>

	<input>
		<net-file value="alcalahenares_3L3h_nomaps_timeALL_taz5-taz50S_fore1-1-4-10_incident_01.net.xml"/>
		<od-amitran-files value="alcalahenares_3L3h_nomaps_timeALL_taz5-taz50S_fore1-1-4-10_incident_01.odmat.xml"/>
	</input>

	<output>
		<output-file value="alcalahenares_3L3h_nomaps_timeALL_taz5-taz50S_fore1-1-4-10_incident_01.trip.xml"/>
		<ignore-vehicle-type value="true"/>
	</output>

	<defaults>
		<departlane value="best"/>
		<departspeed value="0"/>
		<!-- <arrivalpos value="free"/> -->
	</defaults>

</configuration>
