<?xml version="1.0" encoding="UTF-8"?>

<configuration xmlns:xsi="http://www.w3.org/2001/XMLSchema-instance" xsi:noNamespaceSchemaLocation="http://sumo.dlr.de/xsd/od2tripsConfiguration.xsd">

	<configuration>
		<configuration-file value="madrid_las_tablas_L_Bastra_rand05x8_timeALL_tele60_fulltrafic_logit50.od.conf"/>
	</configuration>

	<input>
		<net-file value="madrid_las_tablas_L_Bastra_rand05x8_timeALL_tele60_fulltrafic_logit50.net.xml"/>
		<od-amitran-files value="madrid_las_tablas_L_Bastra_rand05x8_timeALL_tele60_fulltrafic_logit50.odmat.xml"/>
	</input>

	<output>
		<output-file value="madrid_las_tablas_L_Bastra_rand05x8_timeALL_tele60_fulltrafic_logit50.trip.xml"/>
		<ignore-vehicle-type value="true"/>
	</output>

	<defaults>
		<departlane value="best"/>
		<departspeed value="0"/>
		<!-- <arrivalpos value="free"/> -->
	</defaults>

</configuration>
