<?xml version="1.0" encoding="UTF-8"?>

<!-- generated on Fri Oct 21 16:13:13 2016 by SUMO netgenerate Version 0.27.1
<?xml version="1.0" encoding="UTF-8"?>

<configuration xmlns:xsi="http://www.w3.org/2001/XMLSchema-instance" xsi:noNamespaceSchemaLocation="http://sumo.dlr.de/xsd/netgenerateConfiguration.xsd">

    <spider_network>
        <spider value="true"/>
        <spider.arm-number value="16"/>
        <spider.circle-number value="16"/>
        <spider.space-radius value="100"/>
        <spider.omit-center value="true"/>
    </spider_network>

    <output>
        <output-file value="radial_noBastra_adhocmaps_fulltraffic.net.xml"/>
        <plain-output-prefix value="radial_noBastra_adhocmaps_fulltraffic"/>
    </output>

    <building_defaults>
        <default.lanenumber value="1"/>
        <default.priority value="-1"/>
    </building_defaults>

    <report>
        <verbose value="true"/>
    </report>

</configuration>
-->

<connections version="0.27" xmlns:xsi="http://www.w3.org/2001/XMLSchema-instance" xsi:noNamespaceSchemaLocation="http://sumo.dlr.de/xsd/connections_file.xsd">
    <connection from="1/10to1/11" to="1/11to16/11" fromLane="0" toLane="0"/>
    <connection from="1/10to1/11" to="1/11to1/12" fromLane="0" toLane="0"/>
    <connection from="1/10to1/11" to="1/11to2/11" fromLane="0" toLane="0"/>
    <connection from="1/10to1/11" to="1/11to1/10" fromLane="0" toLane="0"/>

    <connection from="1/10to1/9" to="1/9to2/9" fromLane="0" toLane="0"/>
    <connection from="1/10to1/9" to="1/9to1/8" fromLane="0" toLane="0"/>
    <connection from="1/10to1/9" to="1/9to16/9" fromLane="0" toLane="0"/>
    <connection from="1/10to1/9" to="1/9to1/10" fromLane="0" toLane="0"/>

    <connection from="1/10to16/10" to="16/10to16/9" fromLane="0" toLane="0"/>
    <connection from="1/10to16/10" to="16/10to15/10" fromLane="0" toLane="0"/>
    <connection from="1/10to16/10" to="16/10to16/11" fromLane="0" toLane="0"/>
    <connection from="1/10to16/10" to="16/10to1/10" fromLane="0" toLane="0"/>

    <connection from="1/10to2/10" to="2/10to2/11" fromLane="0" toLane="0"/>
    <connection from="1/10to2/10" to="2/10to3/10" fromLane="0" toLane="0"/>
    <connection from="1/10to2/10" to="2/10to2/9" fromLane="0" toLane="0"/>
    <connection from="1/10to2/10" to="2/10to1/10" fromLane="0" toLane="0"/>

    <connection from="1/11to1/10" to="1/10to2/10" fromLane="0" toLane="0"/>
    <connection from="1/11to1/10" to="1/10to1/9" fromLane="0" toLane="0"/>
    <connection from="1/11to1/10" to="1/10to16/10" fromLane="0" toLane="0"/>
    <connection from="1/11to1/10" to="1/10to1/11" fromLane="0" toLane="0"/>

    <connection from="1/11to1/12" to="1/12to16/12" fromLane="0" toLane="0"/>
    <connection from="1/11to1/12" to="1/12to1/13" fromLane="0" toLane="0"/>
    <connection from="1/11to1/12" to="1/12to2/12" fromLane="0" toLane="0"/>
    <connection from="1/11to1/12" to="1/12to1/11" fromLane="0" toLane="0"/>

    <connection from="1/11to16/11" to="16/11to16/10" fromLane="0" toLane="0"/>
    <connection from="1/11to16/11" to="16/11to15/11" fromLane="0" toLane="0"/>
    <connection from="1/11to16/11" to="16/11to16/12" fromLane="0" toLane="0"/>
    <connection from="1/11to16/11" to="16/11to1/11" fromLane="0" toLane="0"/>

    <connection from="1/11to2/11" to="2/11to2/12" fromLane="0" toLane="0"/>
    <connection from="1/11to2/11" to="2/11to3/11" fromLane="0" toLane="0"/>
    <connection from="1/11to2/11" to="2/11to2/10" fromLane="0" toLane="0"/>
    <connection from="1/11to2/11" to="2/11to1/11" fromLane="0" toLane="0"/>

    <connection from="1/12to1/11" to="1/11to2/11" fromLane="0" toLane="0"/>
    <connection from="1/12to1/11" to="1/11to1/10" fromLane="0" toLane="0"/>
    <connection from="1/12to1/11" to="1/11to16/11" fromLane="0" toLane="0"/>
    <connection from="1/12to1/11" to="1/11to1/12" fromLane="0" toLane="0"/>

    <connection from="1/12to1/13" to="1/13to16/13" fromLane="0" toLane="0"/>
    <connection from="1/12to1/13" to="1/13to1/14" fromLane="0" toLane="0"/>
    <connection from="1/12to1/13" to="1/13to2/13" fromLane="0" toLane="0"/>
    <connection from="1/12to1/13" to="1/13to1/12" fromLane="0" toLane="0"/>

    <connection from="1/12to16/12" to="16/12to16/11" fromLane="0" toLane="0"/>
    <connection from="1/12to16/12" to="16/12to15/12" fromLane="0" toLane="0"/>
    <connection from="1/12to16/12" to="16/12to16/13" fromLane="0" toLane="0"/>
    <connection from="1/12to16/12" to="16/12to1/12" fromLane="0" toLane="0"/>

    <connection from="1/12to2/12" to="2/12to2/13" fromLane="0" toLane="0"/>
    <connection from="1/12to2/12" to="2/12to3/12" fromLane="0" toLane="0"/>
    <connection from="1/12to2/12" to="2/12to2/11" fromLane="0" toLane="0"/>
    <connection from="1/12to2/12" to="2/12to1/12" fromLane="0" toLane="0"/>

    <connection from="1/13to1/12" to="1/12to2/12" fromLane="0" toLane="0"/>
    <connection from="1/13to1/12" to="1/12to1/11" fromLane="0" toLane="0"/>
    <connection from="1/13to1/12" to="1/12to16/12" fromLane="0" toLane="0"/>
    <connection from="1/13to1/12" to="1/12to1/13" fromLane="0" toLane="0"/>

    <connection from="1/13to1/14" to="1/14to16/14" fromLane="0" toLane="0"/>
    <connection from="1/13to1/14" to="1/14to1/15" fromLane="0" toLane="0"/>
    <connection from="1/13to1/14" to="1/14to2/14" fromLane="0" toLane="0"/>
    <connection from="1/13to1/14" to="1/14to1/13" fromLane="0" toLane="0"/>

    <connection from="1/13to16/13" to="16/13to16/12" fromLane="0" toLane="0"/>
    <connection from="1/13to16/13" to="16/13to15/13" fromLane="0" toLane="0"/>
    <connection from="1/13to16/13" to="16/13to16/14" fromLane="0" toLane="0"/>
    <connection from="1/13to16/13" to="16/13to1/13" fromLane="0" toLane="0"/>

    <connection from="1/13to2/13" to="2/13to2/14" fromLane="0" toLane="0"/>
    <connection from="1/13to2/13" to="2/13to3/13" fromLane="0" toLane="0"/>
    <connection from="1/13to2/13" to="2/13to2/12" fromLane="0" toLane="0"/>
    <connection from="1/13to2/13" to="2/13to1/13" fromLane="0" toLane="0"/>

    <connection from="1/14to1/13" to="1/13to2/13" fromLane="0" toLane="0"/>
    <connection from="1/14to1/13" to="1/13to1/12" fromLane="0" toLane="0"/>
    <connection from="1/14to1/13" to="1/13to16/13" fromLane="0" toLane="0"/>
    <connection from="1/14to1/13" to="1/13to1/14" fromLane="0" toLane="0"/>

    <connection from="1/14to1/15" to="1/15to16/15" fromLane="0" toLane="0"/>
    <connection from="1/14to1/15" to="1/15to1/16" fromLane="0" toLane="0"/>
    <connection from="1/14to1/15" to="1/15to2/15" fromLane="0" toLane="0"/>
    <connection from="1/14to1/15" to="1/15to1/14" fromLane="0" toLane="0"/>

    <connection from="1/14to16/14" to="16/14to16/13" fromLane="0" toLane="0"/>
    <connection from="1/14to16/14" to="16/14to15/14" fromLane="0" toLane="0"/>
    <connection from="1/14to16/14" to="16/14to16/15" fromLane="0" toLane="0"/>
    <connection from="1/14to16/14" to="16/14to1/14" fromLane="0" toLane="0"/>

    <connection from="1/14to2/14" to="2/14to2/15" fromLane="0" toLane="0"/>
    <connection from="1/14to2/14" to="2/14to3/14" fromLane="0" toLane="0"/>
    <connection from="1/14to2/14" to="2/14to2/13" fromLane="0" toLane="0"/>
    <connection from="1/14to2/14" to="2/14to1/14" fromLane="0" toLane="0"/>

    <connection from="1/15to1/14" to="1/14to2/14" fromLane="0" toLane="0"/>
    <connection from="1/15to1/14" to="1/14to1/13" fromLane="0" toLane="0"/>
    <connection from="1/15to1/14" to="1/14to16/14" fromLane="0" toLane="0"/>
    <connection from="1/15to1/14" to="1/14to1/15" fromLane="0" toLane="0"/>

    <connection from="1/15to1/16" to="1/16to16/16" fromLane="0" toLane="0"/>
    <connection from="1/15to1/16" to="1/16to2/16" fromLane="0" toLane="0"/>
    <connection from="1/15to1/16" to="1/16to1/15" fromLane="0" toLane="0"/>

    <connection from="1/15to16/15" to="16/15to16/14" fromLane="0" toLane="0"/>
    <connection from="1/15to16/15" to="16/15to15/15" fromLane="0" toLane="0"/>
    <connection from="1/15to16/15" to="16/15to16/16" fromLane="0" toLane="0"/>
    <connection from="1/15to16/15" to="16/15to1/15" fromLane="0" toLane="0"/>

    <connection from="1/15to2/15" to="2/15to2/16" fromLane="0" toLane="0"/>
    <connection from="1/15to2/15" to="2/15to3/15" fromLane="0" toLane="0"/>
    <connection from="1/15to2/15" to="2/15to2/14" fromLane="0" toLane="0"/>
    <connection from="1/15to2/15" to="2/15to1/15" fromLane="0" toLane="0"/>

    <connection from="1/16to1/15" to="1/15to2/15" fromLane="0" toLane="0"/>
    <connection from="1/16to1/15" to="1/15to1/14" fromLane="0" toLane="0"/>
    <connection from="1/16to1/15" to="1/15to16/15" fromLane="0" toLane="0"/>
    <connection from="1/16to1/15" to="1/15to1/16" fromLane="0" toLane="0"/>

    <connection from="1/16to16/16" to="16/16to16/15" fromLane="0" toLane="0"/>
    <connection from="1/16to16/16" to="16/16to15/16" fromLane="0" toLane="0"/>
    <connection from="1/16to16/16" to="16/16to1/16" fromLane="0" toLane="0"/>

    <connection from="1/16to2/16" to="2/16to3/16" fromLane="0" toLane="0"/>
    <connection from="1/16to2/16" to="2/16to2/15" fromLane="0" toLane="0"/>
    <connection from="1/16to2/16" to="2/16to1/16" fromLane="0" toLane="0"/>

    <connection from="1/1to1/2" to="1/2to16/2" fromLane="0" toLane="0"/>
    <connection from="1/1to1/2" to="1/2to1/3" fromLane="0" toLane="0"/>
    <connection from="1/1to1/2" to="1/2to2/2" fromLane="0" toLane="0"/>
    <connection from="1/1to1/2" to="1/2to1/1" fromLane="0" toLane="0"/>

    <connection from="1/1to16/1" to="16/1to15/1" fromLane="0" toLane="0"/>
    <connection from="1/1to16/1" to="16/1to16/2" fromLane="0" toLane="0"/>
    <connection from="1/1to16/1" to="16/1to1/1" fromLane="0" toLane="0"/>

    <connection from="1/1to2/1" to="2/1to2/2" fromLane="0" toLane="0"/>
    <connection from="1/1to2/1" to="2/1to3/1" fromLane="0" toLane="0"/>
    <connection from="1/1to2/1" to="2/1to1/1" fromLane="0" toLane="0"/>

    <connection from="1/2to1/1" to="1/1to2/1" fromLane="0" toLane="0"/>
    <connection from="1/2to1/1" to="1/1to16/1" fromLane="0" toLane="0"/>
    <connection from="1/2to1/1" to="1/1to1/2" fromLane="0" toLane="0"/>

    <connection from="1/2to1/3" to="1/3to16/3" fromLane="0" toLane="0"/>
    <connection from="1/2to1/3" to="1/3to1/4" fromLane="0" toLane="0"/>
    <connection from="1/2to1/3" to="1/3to2/3" fromLane="0" toLane="0"/>
    <connection from="1/2to1/3" to="1/3to1/2" fromLane="0" toLane="0"/>

    <connection from="1/2to16/2" to="16/2to16/1" fromLane="0" toLane="0"/>
    <connection from="1/2to16/2" to="16/2to15/2" fromLane="0" toLane="0"/>
    <connection from="1/2to16/2" to="16/2to16/3" fromLane="0" toLane="0"/>
    <connection from="1/2to16/2" to="16/2to1/2" fromLane="0" toLane="0"/>

    <connection from="1/2to2/2" to="2/2to2/3" fromLane="0" toLane="0"/>
    <connection from="1/2to2/2" to="2/2to3/2" fromLane="0" toLane="0"/>
    <connection from="1/2to2/2" to="2/2to2/1" fromLane="0" toLane="0"/>
    <connection from="1/2to2/2" to="2/2to1/2" fromLane="0" toLane="0"/>

    <connection from="1/3to1/2" to="1/2to2/2" fromLane="0" toLane="0"/>
    <connection from="1/3to1/2" to="1/2to1/1" fromLane="0" toLane="0"/>
    <connection from="1/3to1/2" to="1/2to16/2" fromLane="0" toLane="0"/>
    <connection from="1/3to1/2" to="1/2to1/3" fromLane="0" toLane="0"/>

    <connection from="1/3to1/4" to="1/4to16/4" fromLane="0" toLane="0"/>
    <connection from="1/3to1/4" to="1/4to1/5" fromLane="0" toLane="0"/>
    <connection from="1/3to1/4" to="1/4to2/4" fromLane="0" toLane="0"/>
    <connection from="1/3to1/4" to="1/4to1/3" fromLane="0" toLane="0"/>

    <connection from="1/3to16/3" to="16/3to16/2" fromLane="0" toLane="0"/>
    <connection from="1/3to16/3" to="16/3to15/3" fromLane="0" toLane="0"/>
    <connection from="1/3to16/3" to="16/3to16/4" fromLane="0" toLane="0"/>
    <connection from="1/3to16/3" to="16/3to1/3" fromLane="0" toLane="0"/>

    <connection from="1/3to2/3" to="2/3to2/4" fromLane="0" toLane="0"/>
    <connection from="1/3to2/3" to="2/3to3/3" fromLane="0" toLane="0"/>
    <connection from="1/3to2/3" to="2/3to2/2" fromLane="0" toLane="0"/>
    <connection from="1/3to2/3" to="2/3to1/3" fromLane="0" toLane="0"/>

    <connection from="1/4to1/3" to="1/3to2/3" fromLane="0" toLane="0"/>
    <connection from="1/4to1/3" to="1/3to1/2" fromLane="0" toLane="0"/>
    <connection from="1/4to1/3" to="1/3to16/3" fromLane="0" toLane="0"/>
    <connection from="1/4to1/3" to="1/3to1/4" fromLane="0" toLane="0"/>

    <connection from="1/4to1/5" to="1/5to16/5" fromLane="0" toLane="0"/>
    <connection from="1/4to1/5" to="1/5to1/6" fromLane="0" toLane="0"/>
    <connection from="1/4to1/5" to="1/5to2/5" fromLane="0" toLane="0"/>
    <connection from="1/4to1/5" to="1/5to1/4" fromLane="0" toLane="0"/>

    <connection from="1/4to16/4" to="16/4to16/3" fromLane="0" toLane="0"/>
    <connection from="1/4to16/4" to="16/4to15/4" fromLane="0" toLane="0"/>
    <connection from="1/4to16/4" to="16/4to16/5" fromLane="0" toLane="0"/>
    <connection from="1/4to16/4" to="16/4to1/4" fromLane="0" toLane="0"/>

    <connection from="1/4to2/4" to="2/4to2/5" fromLane="0" toLane="0"/>
    <connection from="1/4to2/4" to="2/4to3/4" fromLane="0" toLane="0"/>
    <connection from="1/4to2/4" to="2/4to2/3" fromLane="0" toLane="0"/>
    <connection from="1/4to2/4" to="2/4to1/4" fromLane="0" toLane="0"/>

    <connection from="1/5to1/4" to="1/4to2/4" fromLane="0" toLane="0"/>
    <connection from="1/5to1/4" to="1/4to1/3" fromLane="0" toLane="0"/>
    <connection from="1/5to1/4" to="1/4to16/4" fromLane="0" toLane="0"/>
    <connection from="1/5to1/4" to="1/4to1/5" fromLane="0" toLane="0"/>

    <connection from="1/5to1/6" to="1/6to16/6" fromLane="0" toLane="0"/>
    <connection from="1/5to1/6" to="1/6to1/7" fromLane="0" toLane="0"/>
    <connection from="1/5to1/6" to="1/6to2/6" fromLane="0" toLane="0"/>
    <connection from="1/5to1/6" to="1/6to1/5" fromLane="0" toLane="0"/>

    <connection from="1/5to16/5" to="16/5to16/4" fromLane="0" toLane="0"/>
    <connection from="1/5to16/5" to="16/5to15/5" fromLane="0" toLane="0"/>
    <connection from="1/5to16/5" to="16/5to16/6" fromLane="0" toLane="0"/>
    <connection from="1/5to16/5" to="16/5to1/5" fromLane="0" toLane="0"/>

    <connection from="1/5to2/5" to="2/5to2/6" fromLane="0" toLane="0"/>
    <connection from="1/5to2/5" to="2/5to3/5" fromLane="0" toLane="0"/>
    <connection from="1/5to2/5" to="2/5to2/4" fromLane="0" toLane="0"/>
    <connection from="1/5to2/5" to="2/5to1/5" fromLane="0" toLane="0"/>

    <connection from="1/6to1/5" to="1/5to2/5" fromLane="0" toLane="0"/>
    <connection from="1/6to1/5" to="1/5to1/4" fromLane="0" toLane="0"/>
    <connection from="1/6to1/5" to="1/5to16/5" fromLane="0" toLane="0"/>
    <connection from="1/6to1/5" to="1/5to1/6" fromLane="0" toLane="0"/>

    <connection from="1/6to1/7" to="1/7to16/7" fromLane="0" toLane="0"/>
    <connection from="1/6to1/7" to="1/7to1/8" fromLane="0" toLane="0"/>
    <connection from="1/6to1/7" to="1/7to2/7" fromLane="0" toLane="0"/>
    <connection from="1/6to1/7" to="1/7to1/6" fromLane="0" toLane="0"/>

    <connection from="1/6to16/6" to="16/6to16/5" fromLane="0" toLane="0"/>
    <connection from="1/6to16/6" to="16/6to15/6" fromLane="0" toLane="0"/>
    <connection from="1/6to16/6" to="16/6to16/7" fromLane="0" toLane="0"/>
    <connection from="1/6to16/6" to="16/6to1/6" fromLane="0" toLane="0"/>

    <connection from="1/6to2/6" to="2/6to2/7" fromLane="0" toLane="0"/>
    <connection from="1/6to2/6" to="2/6to3/6" fromLane="0" toLane="0"/>
    <connection from="1/6to2/6" to="2/6to2/5" fromLane="0" toLane="0"/>
    <connection from="1/6to2/6" to="2/6to1/6" fromLane="0" toLane="0"/>

    <connection from="1/7to1/6" to="1/6to2/6" fromLane="0" toLane="0"/>
    <connection from="1/7to1/6" to="1/6to1/5" fromLane="0" toLane="0"/>
    <connection from="1/7to1/6" to="1/6to16/6" fromLane="0" toLane="0"/>
    <connection from="1/7to1/6" to="1/6to1/7" fromLane="0" toLane="0"/>

    <connection from="1/7to1/8" to="1/8to16/8" fromLane="0" toLane="0"/>
    <connection from="1/7to1/8" to="1/8to1/9" fromLane="0" toLane="0"/>
    <connection from="1/7to1/8" to="1/8to2/8" fromLane="0" toLane="0"/>
    <connection from="1/7to1/8" to="1/8to1/7" fromLane="0" toLane="0"/>

    <connection from="1/7to16/7" to="16/7to16/6" fromLane="0" toLane="0"/>
    <connection from="1/7to16/7" to="16/7to15/7" fromLane="0" toLane="0"/>
    <connection from="1/7to16/7" to="16/7to16/8" fromLane="0" toLane="0"/>
    <connection from="1/7to16/7" to="16/7to1/7" fromLane="0" toLane="0"/>

    <connection from="1/7to2/7" to="2/7to2/8" fromLane="0" toLane="0"/>
    <connection from="1/7to2/7" to="2/7to3/7" fromLane="0" toLane="0"/>
    <connection from="1/7to2/7" to="2/7to2/6" fromLane="0" toLane="0"/>
    <connection from="1/7to2/7" to="2/7to1/7" fromLane="0" toLane="0"/>

    <connection from="1/8to1/7" to="1/7to2/7" fromLane="0" toLane="0"/>
    <connection from="1/8to1/7" to="1/7to1/6" fromLane="0" toLane="0"/>
    <connection from="1/8to1/7" to="1/7to16/7" fromLane="0" toLane="0"/>
    <connection from="1/8to1/7" to="1/7to1/8" fromLane="0" toLane="0"/>

    <connection from="1/8to1/9" to="1/9to16/9" fromLane="0" toLane="0"/>
    <connection from="1/8to1/9" to="1/9to1/10" fromLane="0" toLane="0"/>
    <connection from="1/8to1/9" to="1/9to2/9" fromLane="0" toLane="0"/>
    <connection from="1/8to1/9" to="1/9to1/8" fromLane="0" toLane="0"/>

    <connection from="1/8to16/8" to="16/8to16/7" fromLane="0" toLane="0"/>
    <connection from="1/8to16/8" to="16/8to15/8" fromLane="0" toLane="0"/>
    <connection from="1/8to16/8" to="16/8to16/9" fromLane="0" toLane="0"/>
    <connection from="1/8to16/8" to="16/8to1/8" fromLane="0" toLane="0"/>

    <connection from="1/8to2/8" to="2/8to2/9" fromLane="0" toLane="0"/>
    <connection from="1/8to2/8" to="2/8to3/8" fromLane="0" toLane="0"/>
    <connection from="1/8to2/8" to="2/8to2/7" fromLane="0" toLane="0"/>
    <connection from="1/8to2/8" to="2/8to1/8" fromLane="0" toLane="0"/>

    <connection from="1/9to1/10" to="1/10to16/10" fromLane="0" toLane="0"/>
    <connection from="1/9to1/10" to="1/10to1/11" fromLane="0" toLane="0"/>
    <connection from="1/9to1/10" to="1/10to2/10" fromLane="0" toLane="0"/>
    <connection from="1/9to1/10" to="1/10to1/9" fromLane="0" toLane="0"/>

    <connection from="1/9to1/8" to="1/8to2/8" fromLane="0" toLane="0"/>
    <connection from="1/9to1/8" to="1/8to1/7" fromLane="0" toLane="0"/>
    <connection from="1/9to1/8" to="1/8to16/8" fromLane="0" toLane="0"/>
    <connection from="1/9to1/8" to="1/8to1/9" fromLane="0" toLane="0"/>

    <connection from="1/9to16/9" to="16/9to16/8" fromLane="0" toLane="0"/>
    <connection from="1/9to16/9" to="16/9to15/9" fromLane="0" toLane="0"/>
    <connection from="1/9to16/9" to="16/9to16/10" fromLane="0" toLane="0"/>
    <connection from="1/9to16/9" to="16/9to1/9" fromLane="0" toLane="0"/>

    <connection from="1/9to2/9" to="2/9to2/10" fromLane="0" toLane="0"/>
    <connection from="1/9to2/9" to="2/9to3/9" fromLane="0" toLane="0"/>
    <connection from="1/9to2/9" to="2/9to2/8" fromLane="0" toLane="0"/>
    <connection from="1/9to2/9" to="2/9to1/9" fromLane="0" toLane="0"/>

    <connection from="10/10to10/11" to="10/11to9/11" fromLane="0" toLane="0"/>
    <connection from="10/10to10/11" to="10/11to10/12" fromLane="0" toLane="0"/>
    <connection from="10/10to10/11" to="10/11to11/11" fromLane="0" toLane="0"/>
    <connection from="10/10to10/11" to="10/11to10/10" fromLane="0" toLane="0"/>

    <connection from="10/10to10/9" to="10/9to11/9" fromLane="0" toLane="0"/>
    <connection from="10/10to10/9" to="10/9to10/8" fromLane="0" toLane="0"/>
    <connection from="10/10to10/9" to="10/9to9/9" fromLane="0" toLane="0"/>
    <connection from="10/10to10/9" to="10/9to10/10" fromLane="0" toLane="0"/>

    <connection from="10/10to11/10" to="11/10to11/11" fromLane="0" toLane="0"/>
    <connection from="10/10to11/10" to="11/10to12/10" fromLane="0" toLane="0"/>
    <connection from="10/10to11/10" to="11/10to11/9" fromLane="0" toLane="0"/>
    <connection from="10/10to11/10" to="11/10to10/10" fromLane="0" toLane="0"/>

    <connection from="10/10to9/10" to="9/10to9/9" fromLane="0" toLane="0"/>
    <connection from="10/10to9/10" to="9/10to8/10" fromLane="0" toLane="0"/>
    <connection from="10/10to9/10" to="9/10to9/11" fromLane="0" toLane="0"/>
    <connection from="10/10to9/10" to="9/10to10/10" fromLane="0" toLane="0"/>

    <connection from="10/11to10/10" to="10/10to11/10" fromLane="0" toLane="0"/>
    <connection from="10/11to10/10" to="10/10to10/9" fromLane="0" toLane="0"/>
    <connection from="10/11to10/10" to="10/10to9/10" fromLane="0" toLane="0"/>
    <connection from="10/11to10/10" to="10/10to10/11" fromLane="0" toLane="0"/>

    <connection from="10/11to10/12" to="10/12to9/12" fromLane="0" toLane="0"/>
    <connection from="10/11to10/12" to="10/12to10/13" fromLane="0" toLane="0"/>
    <connection from="10/11to10/12" to="10/12to11/12" fromLane="0" toLane="0"/>
    <connection from="10/11to10/12" to="10/12to10/11" fromLane="0" toLane="0"/>

    <connection from="10/11to11/11" to="11/11to11/12" fromLane="0" toLane="0"/>
    <connection from="10/11to11/11" to="11/11to12/11" fromLane="0" toLane="0"/>
    <connection from="10/11to11/11" to="11/11to11/10" fromLane="0" toLane="0"/>
    <connection from="10/11to11/11" to="11/11to10/11" fromLane="0" toLane="0"/>

    <connection from="10/11to9/11" to="9/11to9/10" fromLane="0" toLane="0"/>
    <connection from="10/11to9/11" to="9/11to8/11" fromLane="0" toLane="0"/>
    <connection from="10/11to9/11" to="9/11to9/12" fromLane="0" toLane="0"/>
    <connection from="10/11to9/11" to="9/11to10/11" fromLane="0" toLane="0"/>

    <connection from="10/12to10/11" to="10/11to11/11" fromLane="0" toLane="0"/>
    <connection from="10/12to10/11" to="10/11to10/10" fromLane="0" toLane="0"/>
    <connection from="10/12to10/11" to="10/11to9/11" fromLane="0" toLane="0"/>
    <connection from="10/12to10/11" to="10/11to10/12" fromLane="0" toLane="0"/>

    <connection from="10/12to10/13" to="10/13to9/13" fromLane="0" toLane="0"/>
    <connection from="10/12to10/13" to="10/13to10/14" fromLane="0" toLane="0"/>
    <connection from="10/12to10/13" to="10/13to11/13" fromLane="0" toLane="0"/>
    <connection from="10/12to10/13" to="10/13to10/12" fromLane="0" toLane="0"/>

    <connection from="10/12to11/12" to="11/12to11/13" fromLane="0" toLane="0"/>
    <connection from="10/12to11/12" to="11/12to12/12" fromLane="0" toLane="0"/>
    <connection from="10/12to11/12" to="11/12to11/11" fromLane="0" toLane="0"/>
    <connection from="10/12to11/12" to="11/12to10/12" fromLane="0" toLane="0"/>

    <connection from="10/12to9/12" to="9/12to9/11" fromLane="0" toLane="0"/>
    <connection from="10/12to9/12" to="9/12to8/12" fromLane="0" toLane="0"/>
    <connection from="10/12to9/12" to="9/12to9/13" fromLane="0" toLane="0"/>
    <connection from="10/12to9/12" to="9/12to10/12" fromLane="0" toLane="0"/>

    <connection from="10/13to10/12" to="10/12to11/12" fromLane="0" toLane="0"/>
    <connection from="10/13to10/12" to="10/12to10/11" fromLane="0" toLane="0"/>
    <connection from="10/13to10/12" to="10/12to9/12" fromLane="0" toLane="0"/>
    <connection from="10/13to10/12" to="10/12to10/13" fromLane="0" toLane="0"/>

    <connection from="10/13to10/14" to="10/14to9/14" fromLane="0" toLane="0"/>
    <connection from="10/13to10/14" to="10/14to10/15" fromLane="0" toLane="0"/>
    <connection from="10/13to10/14" to="10/14to11/14" fromLane="0" toLane="0"/>
    <connection from="10/13to10/14" to="10/14to10/13" fromLane="0" toLane="0"/>

    <connection from="10/13to11/13" to="11/13to11/14" fromLane="0" toLane="0"/>
    <connection from="10/13to11/13" to="11/13to12/13" fromLane="0" toLane="0"/>
    <connection from="10/13to11/13" to="11/13to11/12" fromLane="0" toLane="0"/>
    <connection from="10/13to11/13" to="11/13to10/13" fromLane="0" toLane="0"/>

    <connection from="10/13to9/13" to="9/13to9/12" fromLane="0" toLane="0"/>
    <connection from="10/13to9/13" to="9/13to8/13" fromLane="0" toLane="0"/>
    <connection from="10/13to9/13" to="9/13to9/14" fromLane="0" toLane="0"/>
    <connection from="10/13to9/13" to="9/13to10/13" fromLane="0" toLane="0"/>

    <connection from="10/14to10/13" to="10/13to11/13" fromLane="0" toLane="0"/>
    <connection from="10/14to10/13" to="10/13to10/12" fromLane="0" toLane="0"/>
    <connection from="10/14to10/13" to="10/13to9/13" fromLane="0" toLane="0"/>
    <connection from="10/14to10/13" to="10/13to10/14" fromLane="0" toLane="0"/>

    <connection from="10/14to10/15" to="10/15to9/15" fromLane="0" toLane="0"/>
    <connection from="10/14to10/15" to="10/15to10/16" fromLane="0" toLane="0"/>
    <connection from="10/14to10/15" to="10/15to11/15" fromLane="0" toLane="0"/>
    <connection from="10/14to10/15" to="10/15to10/14" fromLane="0" toLane="0"/>

    <connection from="10/14to11/14" to="11/14to11/15" fromLane="0" toLane="0"/>
    <connection from="10/14to11/14" to="11/14to12/14" fromLane="0" toLane="0"/>
    <connection from="10/14to11/14" to="11/14to11/13" fromLane="0" toLane="0"/>
    <connection from="10/14to11/14" to="11/14to10/14" fromLane="0" toLane="0"/>

    <connection from="10/14to9/14" to="9/14to9/13" fromLane="0" toLane="0"/>
    <connection from="10/14to9/14" to="9/14to8/14" fromLane="0" toLane="0"/>
    <connection from="10/14to9/14" to="9/14to9/15" fromLane="0" toLane="0"/>
    <connection from="10/14to9/14" to="9/14to10/14" fromLane="0" toLane="0"/>

    <connection from="10/15to10/14" to="10/14to11/14" fromLane="0" toLane="0"/>
    <connection from="10/15to10/14" to="10/14to10/13" fromLane="0" toLane="0"/>
    <connection from="10/15to10/14" to="10/14to9/14" fromLane="0" toLane="0"/>
    <connection from="10/15to10/14" to="10/14to10/15" fromLane="0" toLane="0"/>

    <connection from="10/15to10/16" to="10/16to9/16" fromLane="0" toLane="0"/>
    <connection from="10/15to10/16" to="10/16to11/16" fromLane="0" toLane="0"/>
    <connection from="10/15to10/16" to="10/16to10/15" fromLane="0" toLane="0"/>

    <connection from="10/15to11/15" to="11/15to11/16" fromLane="0" toLane="0"/>
    <connection from="10/15to11/15" to="11/15to12/15" fromLane="0" toLane="0"/>
    <connection from="10/15to11/15" to="11/15to11/14" fromLane="0" toLane="0"/>
    <connection from="10/15to11/15" to="11/15to10/15" fromLane="0" toLane="0"/>

    <connection from="10/15to9/15" to="9/15to9/14" fromLane="0" toLane="0"/>
    <connection from="10/15to9/15" to="9/15to8/15" fromLane="0" toLane="0"/>
    <connection from="10/15to9/15" to="9/15to9/16" fromLane="0" toLane="0"/>
    <connection from="10/15to9/15" to="9/15to10/15" fromLane="0" toLane="0"/>

    <connection from="10/16to10/15" to="10/15to11/15" fromLane="0" toLane="0"/>
    <connection from="10/16to10/15" to="10/15to10/14" fromLane="0" toLane="0"/>
    <connection from="10/16to10/15" to="10/15to9/15" fromLane="0" toLane="0"/>
    <connection from="10/16to10/15" to="10/15to10/16" fromLane="0" toLane="0"/>

    <connection from="10/16to11/16" to="11/16to12/16" fromLane="0" toLane="0"/>
    <connection from="10/16to11/16" to="11/16to11/15" fromLane="0" toLane="0"/>
    <connection from="10/16to11/16" to="11/16to10/16" fromLane="0" toLane="0"/>

    <connection from="10/16to9/16" to="9/16to9/15" fromLane="0" toLane="0"/>
    <connection from="10/16to9/16" to="9/16to8/16" fromLane="0" toLane="0"/>
    <connection from="10/16to9/16" to="9/16to10/16" fromLane="0" toLane="0"/>

    <connection from="10/1to10/2" to="10/2to9/2" fromLane="0" toLane="0"/>
    <connection from="10/1to10/2" to="10/2to10/3" fromLane="0" toLane="0"/>
    <connection from="10/1to10/2" to="10/2to11/2" fromLane="0" toLane="0"/>
    <connection from="10/1to10/2" to="10/2to10/1" fromLane="0" toLane="0"/>

    <connection from="10/1to11/1" to="11/1to11/2" fromLane="0" toLane="0"/>
    <connection from="10/1to11/1" to="11/1to12/1" fromLane="0" toLane="0"/>
    <connection from="10/1to11/1" to="11/1to10/1" fromLane="0" toLane="0"/>

    <connection from="10/1to9/1" to="9/1to8/1" fromLane="0" toLane="0"/>
    <connection from="10/1to9/1" to="9/1to9/2" fromLane="0" toLane="0"/>
    <connection from="10/1to9/1" to="9/1to10/1" fromLane="0" toLane="0"/>

    <connection from="10/2to10/1" to="10/1to11/1" fromLane="0" toLane="0"/>
    <connection from="10/2to10/1" to="10/1to9/1" fromLane="0" toLane="0"/>
    <connection from="10/2to10/1" to="10/1to10/2" fromLane="0" toLane="0"/>

    <connection from="10/2to10/3" to="10/3to9/3" fromLane="0" toLane="0"/>
    <connection from="10/2to10/3" to="10/3to10/4" fromLane="0" toLane="0"/>
    <connection from="10/2to10/3" to="10/3to11/3" fromLane="0" toLane="0"/>
    <connection from="10/2to10/3" to="10/3to10/2" fromLane="0" toLane="0"/>

    <connection from="10/2to11/2" to="11/2to11/3" fromLane="0" toLane="0"/>
    <connection from="10/2to11/2" to="11/2to12/2" fromLane="0" toLane="0"/>
    <connection from="10/2to11/2" to="11/2to11/1" fromLane="0" toLane="0"/>
    <connection from="10/2to11/2" to="11/2to10/2" fromLane="0" toLane="0"/>

    <connection from="10/2to9/2" to="9/2to9/1" fromLane="0" toLane="0"/>
    <connection from="10/2to9/2" to="9/2to8/2" fromLane="0" toLane="0"/>
    <connection from="10/2to9/2" to="9/2to9/3" fromLane="0" toLane="0"/>
    <connection from="10/2to9/2" to="9/2to10/2" fromLane="0" toLane="0"/>

    <connection from="10/3to10/2" to="10/2to11/2" fromLane="0" toLane="0"/>
    <connection from="10/3to10/2" to="10/2to10/1" fromLane="0" toLane="0"/>
    <connection from="10/3to10/2" to="10/2to9/2" fromLane="0" toLane="0"/>
    <connection from="10/3to10/2" to="10/2to10/3" fromLane="0" toLane="0"/>

    <connection from="10/3to10/4" to="10/4to9/4" fromLane="0" toLane="0"/>
    <connection from="10/3to10/4" to="10/4to10/5" fromLane="0" toLane="0"/>
    <connection from="10/3to10/4" to="10/4to11/4" fromLane="0" toLane="0"/>