<!-- Generated by mutraff_tazcalc. alvaro.paricio@uah.es -->
  -->
<tazs>
  <!-- name="La dehesa" -->
  <taz id="50" edges="-106147508 -123483825#0 -123483825#1 -123483825#2 -179175847 -183372461 -221092675 -221092679 -29288160 -29288185 -29289561#0 -29289561#1 -29289561#2 -29289561#3 -29289561#4 -29289561#5 -29289561#6 -29289645#0 -29289645#1 -29289645#2 -313495200 -313495209 -38781736 -405649771 -50170636#0 -50170636#1 -50170636#2 -50170637 -50170638#0 -50170638#1 -50170638#2 -50170638#3 -50170641 -75482908 -75689979 -91339213 106147507 106147508 123483766 123483825#0 123483825#1 123483825#2 160639315 179175827#0 179175827#1 179175827#2 179175827#3 179175827#4 179175827#5 179175827#6 179175842 179175847 179175853 179175858 179175881 183334658 183372461 221092675 221092677#0 221092677#1 221092677#10 221092677#11 221092677#12 221092677#13 221092677#14 221092677#15 221092677#2 221092677#3 221092677#4 221092677#5 221092677#6 221092677#7 221092677#8 221092677#9 221092679 23859154#0 29287875#0 29287875#1 29287875#2 29287875#3 29287875#4 29287875#5 29287879#0 29287879#1 29287879#2 29287890#0 29287890#1 29288133#0 29288133#1 29288133#2 29288133#3 29288133#4 29288133#5 29288160 29288176#0 29288176#1 29288176#2 29288176#3 29288176#4 29288176#5 29288176#6 29288179#0 29288179#1 29288179#2 29288179#3 29288185 29288211 29289529#0 29289529#1 29289538#0 29289538#1 29289538#2 29289557 29289561#0 29289561#1 29289561#2 29289561#3 29289561#4 29289561#5 29289561#6 29289567#0 29289567#1 29289567#2 29289567#3 29289567#4 29289567#5 29289567#6 29289581#0 29289581#1 29289581#2 29289581#3 29289625#0 29289625#1 29289631 29289637 29289639#0 29289639#1 29289639#2 29289639#3 29289639#4 29289639#5 29289645#0 29289645#1 29289645#2 29289647 29289682#0 29289682#1 29289682#2 29289682#3 29289692#0 29289692#1 29289692#10 29289692#11 29289692#12 29289692#13 29289692#14 29289692#15 29289692#16 29289692#17 29289692#18 29289692#19 29289692#2 29289692#20 29289692#21 29289692#22 29289692#23 29289692#24 29289692#25 29289692#26 29289692#27 29289692#3 29289692#4 29289692#5 29289692#6 29289692#7 29289692#8 29289692#9 313495200 313495201 313495203 313495209 314898332 328740483 355558165#1 35582259#0 35582259#1 35582259#2 35582259#3 35582259#4 35582259#5 35582259#6 35582260 35582262 35968161 386386639#0 386386639#1 386386639#2 386386639#3 386386639#4 386386644 38781732#0 38781732#1 38781732#2 38781732#3 38781733#0 38781733#1 38781736 38781748#0 38781748#1 38781748#2 38781748#3 405649771 409045422#0 409045422#1 409045422#10 409045422#11 409045422#12 409045422#13 409045422#14 409045422#15 409045422#16 409045422#17 409045422#18 409045422#19 409045422#2 409045422#20 409045422#21 409045422#22 409045422#23 409045422#24 409045422#25 409045422#26 409045422#27 409045422#28 409045422#29 409045422#3 409045422#30 409045422#31 409045422#32 409045422#4 409045422#5 409045422#6 409045422#7 409045422#8 409045422#9 409045423 422632976 42777026#0 42777026#1 42777026#2 50170636#0 50170636#1 50170636#2 50170637 50170638#0 50170638#1 50170638#2 50170638#3 50170641 75482908 75689979 86746435#0 86746435#1 86746438#0 86746438#1 86746438#2 86746438#3 86746438#4 86746441#0 86746441#1 86746444#0 86746444#1 86746444#2 86746444#3 86746444#4 91339196 91339208#0 91339208#1 91339213" />
  <!-- name="ensanche" -->
  <taz id="51" edges="-118201163#0 -118201163#1 -161480961 -161482080#1 -161482080#2 -161482080#3 -161482080#4 -161482080#5 -161482080#6 -164049083#0 -164049083#1 -164049083#10 -164049083#11 -164049083#12 -164049083#13 -164049083#14 -164049083#15 -164049083#16 -164049083#17 -164049083#2 -164049083#3 -164049083#4 -164049083#5 -164049083#6 -164049083#7 -164049083#8 -164049083#9 -174188601 -174188603#1 -174188603#10 -174188603#2 -174188603#3 -174188603#4 -174188603#5 -174188603#6 -174188603#7 -174188603#8 -174188603#9 -174188609 -174188610 -174188612 -174188613 -191930374 -23907664#0 -23907664#1 -23907664#2 -23907664#3 -23907664#4 -23907664#5 -23957290#0 -23957290#1 -23957290#10 -23957290#11 -23957290#12 -23957290#2 -23957290#3 -23957290#4 -23957290#5 -23957290#6 -23957290#7 -23957290#8 -23957290#9 -23957295#0 -23957295#1 -23957295#2 -23957295#3 -23957295#4 -23957295#5 -23957295#6 -23957301#0 -23957301#1 -23957302#0 -23957302#1 -23957302#2 -23957305#0 -23957305#1 -23957306 -23957307 -23957309 -23957310 -23957328#0 -23957328#1 -23957345#0 -23957345#1 -23957345#2 -23957345#3 -23957365#1 -23957388#0 -23957388#1 -23957406#0 -23957406#1 -23957406#2 -23957406#3 -23957406#4 -23957406#5 -323877903 -323877905#0 -323877905#1 -323877907#0 -323877907#1 -323877908#0 -323877908#1 -323877909#0 -323877909#1 -323877910 -32907516 -344082753 -409073638#0 -409073638#1 -409073638#2 -409073638#3 -409073638#4 -409073638#5 -409073638#6 -409073638#7 -75117860#0 -75117860#1 -75117860#2 -75117860#3 -75117860#4 -75689696 -75689697 -75810140#1 -75810140#2 -75810140#3 -75810140#4 -75810140#5 -75902130#0 -75902130#1 -75902132#0 -75902132#1 -75902132#2 -75902132#3 -75902132#4 -75902132#5 -75902132#6 118201155#0 118201155#1 118201163#0 118201163#1 118201165#0 118201165#1 118201165#2 118201165#3 118201172#0 118201172#1 118201172#2 118201172#3 118201172#4 123021264#1 123021264#2 123021264#3 123021264#4 123021266#0 123021266#1 123021266#2 123021267#0 123021267#1 123021267#2 123021269#0 123021269#1 158848993#0 158848993#1 158848995 161480961 161482000#0 161482000#1 161482000#2 161482000#3 161482000#4 161482000#5 161482000#6 161482080#1 161482080#2 161482080#3 161482080#4 161482080#5 161482080#6 164049083#0 164049083#1 164049083#10 164049083#11 164049083#12 164049083#13 164049083#14 164049083#15 164049083#16 164049083#17 164049083#2 164049083#3 164049083#4 164049083#5 164049083#6 164049083#7 164049083#8 164049083#9 174188601 174188602#0 174188602#1 174188602#2 174188602#3 174188603#1 174188603#10 174188603#2 174188603#3 174188603#4 174188603#5 174188603#6 174188603#7 174188603#8 174188603#9 174188609 174188610 174188612 174188613 191930374 23907584#0 23907584#1 23907587#0 23907587#1 23907587#2 23907587#3 23907587#4 23907587#5 23907587#6 23907587#7 23907590#0 23907590#1 23907590#2 23907664#0 23907664#1 23907664#2 23907664#3 23907664#4 23907664#5 23957290#0 23957290#1 23957290#10 23957290#11 23957290#12 23957290#2 23957290#3 23957290#4 23957290#5 23957290#6 23957290#7 23957290#8 23957290#9 23957295#0 23957295#1 23957295#2 23957295#3 23957295#4 23957295#5 23957295#6 23957301#0 23957301#1 23957302#0 23957302#1 23957302#2 23957305#0 23957305#1 23957306 23957307 23957309 23957310 23957328#0 23957328#1 23957339#0 23957339#1 23957339#2 23957343#0 23957343#1 23957343#2 23957343#3 23957343#4 23957343#5 23957345#0 23957345#1 23957345#2 23957345#3 23957365#1 23957370#0 23957370#1 23957370#2 23957370#3 23957371#0 23957371#1 23957371#2 23957371#3 23957371#4 23957371#5 23957371#6 23957388#0 23957388#1 23957406#0 23957406#1 23957406#2 23957406#3 23957406#4 23957406#5 23957416#0 23957416#1 23957416#2 23957416#3 23957530#0 323877903 323877905#0 323877905#1 323877907#0 323877907#1 323877908#0 323877908#1 323877909#0 323877909#1 323877910 32907485#0 32907485#1 32907514#0 32907514#1 32907516 344082753 409073638#0 409073638#1 409073638#2 409073638#3 409073638#4 409073638#5 409073638#6 409073638#7 67034762#1 75117860#0 75117860#1 75117860#2 75117860#3 75117860#4 75117869#0 75117869#1 75117869#2 75117869#3 75689696 75689697 75810135#3 75810135#4 75810135#5 75810138#0 75810138#1 75810138#2 75810138#3 75810138#4 75810140#1 75810140#2 75810140#3 75810140#4 75810140#5 75902130#0 75902130#1 75902132#0 75902132#1 75902132#2 75902132#3 75902132#4 75902132#5 75902132#6 75902140#0 75902140#1 76508303#0 76508303#1 76508310#2 76508310#3 76508330#4 76508330#5 76508330#6" />
  <!-- name="nueva_rinconada" -->
  <taz id="52" edges="-158265374#0 -158265374#1 -158265379#0 -158265379#1 -158265379#2 -158265379#3 -158265379#4 -158265384#0 -158265384#1 -158273361 -158273363#0 -158273363#1 -158273379#0 -158273379#1 -158273379#2 -158273379#3 -158273379#4 -158273379#5 -192453746#0 -192453746#1 -192453746#2 -192453747 -192453748#0 -192453748#1 -192453748#2 -192453748#3 -192453751#0 -192453751#1 -192453752#0 -192453752#1 -192453753#0 -192453753#1 -196693426#0 -196693426#1 -196693426#2 -23941729 -23941732#0 -23941732#1 -23941732#2 -23941732#3 -23941732#4 -23941739#0 -23941739#1 -23941755 -23941763#0 -23941763#1 -23941763#2 -23941763#3 -23941763#4 -23941763#5 -23941767#0 -23941767#1 -23941767#2 -23941767#3 -23957462#1 -32900597 -32900599 -32900602 -32900603 -32900604 -35969128#0 -36250321#2 -36250321#3 -36250369 -380887380#0 -380887380#1 -380887380#2 -380887380#3 -380887380#4 -380887380#5 -380887380#6 -380887380#7 -380892201#0 -380892201#1 -408625732#0 -408625732#1 -408625732#2 -408625732#3 -408625732#4 -408625733 -408625734 158265374#0 158265374#1 158265377#0 158265377#1 158265379#0 158265379#1 158265379#2 158265379#3 158265379#4 158265381#0 158265381#1 158265381#2 158265384#0 158265384#1 158265388 158273361 192453746#0 192453746#1 192453746#2 192453748#0 192453748#1 192453748#2 192453748#3 196693426#0 196693426#1 196693426#2 196693427#0 196693427#1 196693428 196693429 19916362#3 22932766#0 22932766#1 23941724 23941729 23941755 23941763#0 23941763#1 23941763#2 23941763#3 23941763#4 23941763#5 23941767#0 23941767#1 23941767#2 23941767#3 23957462#1 32900590#0 32900590#1 32900590#2 32900593#0 32900593#1 32900593#2 32900593#3 32900593#4 32900595 32900597 32900599 32900602 32900603 32900604 35969128#0 36250321#2 36250321#3 36250369 380887380#0 380887380#1 380887380#2 380887380#3 380887380#4 380887380#5 380887380#6 380887380#7 380892201#0 380892201#1 408625732#0 408625732#1 408625732#2 408625732#3 408625732#4 408625734 76508332#0 76508332#1 76508334 76508336" />
  <!-- name="rinconada" -->
  <taz id="53" edges="-134180009#0 -134180009#1 -134180010#0 -134180010#1 -134180010#2 -134180010#3 -134180011#0 -134180011#1 -134180011#2 -158265372 -158265378#0 -158265378#1 -158265378#2 -158265382#0 -158265382#1 -158265382#2 -158273369 -158273375 -197934971#0 -206095635#0 -206095635#1 -221078255 -221080071 -221080549 -225743996#0 -225743996#1 -225743996#2 -225743996#3 -23907673#0 -23907673#1 -23907673#2 -23907673#3 -23907673#4 -23907673#5 -23907673#6 -23907673#7 -23907675#0 -23907675#1 -23907675#2 -23907675#3 -23907675#4 -23907675#5 -23907675#6 -28343683#0 -28343683#1 -28343683#2 -28343683#3 -28343683#4 -28343683#5 -28343683#6 -28343685#0 -28343685#1 -28343685#2 -28343685#3 -28343685#4 -28343685#5 -28343686#0 -28343686#1 -28343686#10 -28343686#2 -28343686#3 -28343686#4 -28343686#5 -28343686#6 -28343686#7 -28343686#8 -28343686#9 -28343693#0 -28343693#1 -28343693#2 -28355566#0 -28355566#1 -28355568#0 -28355568#1 -296704315#0 -296704315#1 -296705012 -296705829 -300506631 -300506810#0 -300506810#1 -300506818 -300506868#0 -300506868#1 -300506868#2 -300507923 -300508029#0 -300508029#1 -300508029#2 -300508029#3 -300508029#4 -300508103 -300511261 -300511262#0 -300511262#1 -300511263 -300511264 -301153578#0 -301153578#1 -32402199#0 -32402199#1 -32402199#2 -32402199#3 -32402199#4 -32402199#5 -32900563 -32900579#0 -32900579#1 -32900579#2 -32900579#3 -32900655#0 -32900655#1 -32900658 -32900676#0 -32900676#1 -345227289#0 -345227289#1 -345227290#0 -345227290#1 -345227290#2 -345227290#3 -36249487#0 -36249487#1 -36249749#0 -36249749#1 -36249749#2 -36249916#0 -36249916#1 -36250199 -380892200#1 -408922028#0 -408922028#1 -408922028#2 -408922028#3 -408922028#4 -408922028#5 -408922032#0 -408922032#1 -409041501#0 -409041501#1 -409041501#2 -409041501#3 -409041501#4 -409041501#7 -422507344#0 -422507344#1 -422507344#4 -422507344#5 -422507344#6 -429375355 -429375363 -77806020 134180008 134180009#0 134180009#1 134180010#0 134180010#1 134180010#2 134180010#3 134180011#0 134180011#1 134180011#2 151292457 151292458 151292459 158265372 158265382#0 158265382#1 158265382#2 158265385#0 158265385#1 158273369 158273375 158273378 158350671 197934971#0 19916359#4 19916359#5 19916359#6 19916359#7 206095635#0 206095635#1 221078256#0 221078256#1 221078256#2 221078256#3 221078256#4 221080071 221080549 23904729#0 23907673#0 23907673#1 23907673#2 23907673#3 23907673#4 23907673#5 23907673#6 23907673#7 23907675#0 23907675#1 23907675#2 23907675#3 23907675#4 23907675#5 23907675#6 249995223 249995224#0 249995224#1 249995224#2 252184792 256287030 256287031 28343685#0 28343685#1 28343685#2 28343685#3 28343685#4 28343685#5 28343686#0 28343686#1 28343686#10 28343686#2 28343686#3 28343686#4 28343686#5 28343686#6 28343686#7 28343686#8 28343686#9 28343693#0 28343693#1 28343693#2 28355566#0 28355566#1 28355568#0 28355568#1 28355570#0 28355570#1 28355572#0 28355572#1 28355572#2 28355572#3 296704315#0 296704315#1 296705012 296705829 300506631 300506810#0 300506810#1 300506818 300506868#0 300506868#1 300506868#2 300507923 300508029#0 300508029#1 300508029#2 300508029#3 300508029#4 300508103 300511261 300511262#0 300511262#1 300511263 300511264 301153578#0 301153578#1 32402199#0 32402199#1 32402199#2 32402199#3 32402199#4 32402199#5 32900563 32900573 32900579#0 32900579#1 32900579#2 32900579#3 32900653 32900655#0 32900655#1 32900658 32900676#0 32900676#1 345227289#0 345227289#1 345227290#0 345227290#1 345227290#2 345227290#3 36246428 36249487#0 36249487#1 36249749#0 36249749#1 36249749#2 36249804 36249916#0 36249916#1 36250199 380892200#1 380895136#0 380895136#1 408922028#0 408922028#1 408922028#2 408922028#3 408922028#4 408922028#5 408922032#0 408922032#1 409041501#0 409041501#1 409041501#2 409041501#3 409041501#4 409041501#7 422507344#0 422507344#1 422507344#4 422507344#5 422507344#6 429375355 429375363 76508326#0 76508326#1 76508326#2 77806016#0 77806016#1 77806016#2 77806016#3 77806016#4 77806020 77806025#0 77806025#1 77806025#2 77806025#3 77806025#4 77806025#5 77806025#6 77806025#7 77806025#8 77806026#0 77806026#1 77806026#2 77806026#3 77806026#4 77806026#5 77806026#6 77806028#1 77806028#2 77806028#3" />
  <!-- name="juan de austria" -->
  <taz id="54" edges="-123483789 -123483852 -151292469 -151292475#0 -151292475#1 -151292475#2 -151292475#3 -151292475#4 -151292475#5 -156663586#0 -156663586#1 -156663597#0 -156663597#1 -156663597#2 -156663597#3 -156663597#4 -156663599#0 -156663599#1 -158349119#0 -158349119#1 -158349119#2 -23904519#1 -23904519#2 -23907551 -23971716#0 -23971716#1 -23971716#2 -23971716#3 -23971716#4 -23971728#0 -23971728#1 -23971728#2 -24560960 -248061779 -248061780#0 -248061780#1 -248061780#2 -253086824 -253086826#0 -253086826#1 -253086826#2 -256519084#0 -256519084#1 -256585719#5 -256585719#6 -256585719#7 -256585719#8 -256585719#9 -256585722#0 -256585722#1 -256585722#2 -256585722#3 -256585722#4 -256585722#5 -256585723 -256644242 -256644245 -28355546#0 -28355546#1 -28355546#2 -28355546#3 -28355550 -28355552#0 -28355552#1 -28355552#2 -28355552#3 -28355552#4 -28355552#5 -28355552#6 -28355555 -296715517 -32900481#0 -32900481#1 -32900481#2 -32900481#3 -32900499 -32900502#0 -32900502#1 -32900502#2 -32900507 -32933686 -357265153#0 -357265153#1 -357265153#2 -357265153#3 -357265153#4 -373795575 -378118811 -378122091 -378122230#0 -378122230#1 -381991688#0 -409044039#0 -409044039#1 -409044039#2 -409044039#3 -409044039#4 -409139012 -409243929#0 -409243929#1 -409243929#2 -409333977 -409333980#0 -409333980#1 -409333980#2 -409333982 -422509560 -422632975 -77058988 -77065287#0 -77065287#1 -77065287#2 -77065287#3 -77065287#4 -77065287#5 -77065287#6 123483760#0 123483760#1 123483760#2 123483760#3 123483760#4 123483789 123483852 146334709#0 146334709#1 151292453#0 151292453#1 151292453#2 151292453#3 151292455#0 151292455#1 151292455#2 151292456#0 151292456#1 151292456#2 151292456#3 151292467 151292469 151292474 151292475#0 151292475#1 151292475#2 151292475#3 151292475#4 151292475#5 156663585#0 156663585#1 156663585#2 156663585#3 156663585#4 156663585#5 156663586#0 156663586#1 156663593 156663594#0 156663594#1 156663596#0 156663596#1 156663596#2 156663596#3 156663597#0 156663597#1 156663597#2 156663597#3 156663597#4 156663598#0 156663598#1 156663598#2 156663598#3 156663599#0 156663599#1 158349119#0 158349119#1 158349119#2 204970803#1 204970804 204970805 212506552 212506553 227353607#0 227353607#1 227353607#2 227353608 227354783 23859062#3 23904519#1 23904519#2 23904526#0 23904526#1 23904528#1 23904540#0 23904540#1 23907551 23907635#0 23907635#1 23907635#2 23907635#3 23907635#4 23907639#0 23907639#1 23907639#2 23907639#3 23971716#0 23971716#1 23971716#2 23971716#3 23971716#4 23971728#0 23971728#1 23971728#2 23971731 23971732#0 23971732#1 23971732#2 23971732#3 23971732#4 23971732#5 24038148 24038150#0 24038150#1 24038150#2 24038150#3 24038150#4 24038150#5 24038167 24038170#0 24038170#5 24038170#6 24038170#7 24038173#1 24038173#2 24038173#3 24038175#0 24038175#1 24560960 248061778 248061779 248061780#0 248061780#1 248061780#2 248061781 248061782 253086824 253086826#0 253086826#1 253086826#2 254407692#0 254407692#1 254407692#2 254407692#3 254407692#4 254407692#5 254899429#0 254899429#1 254899430 254899431#0 254899431#1 256519080#0 256519080#1 256519080#2 256519080#3 256519080#4 256519080#5 256519080#6 256519080#7 256519080#8 256519081#0 256519081#1 256519081#2 256519081#3 256519081#4 256519081#5 256519082#0 256519082#1 256519082#2 256519084#0 256519084#1 256585719#5 256585719#6 256585719#7 256585719#8 256585719#9 256585721#0 256585721#1 256585721#2 256585721#3 256585721#4 256585721#5 256585722#0 256585722#1 256585722#2 256585722#3 256585722#4 256585722#5 256585723 256644242 256644243 256644244 256644245 256644246#0 256644246#1 256644246#2 256644246#3 256644247#0 256644247#1 256644252#0 256644252#1 256644252#2 256644253#0 256644253#1 256644253#2 256644253#3 28343768#0 28343768#1 28343768#2 28343768#3 28343768#4 28343768#5 28343768#6 28343768#7 28355545#0 28355545#1 28355546#0 28355546#1 28355546#2 28355546#3 28355550 28355552#0 28355552#1 28355552#2 28355552#3 28355552#4 28355552#5 28355552#6 28355553#0 28355553#1 28355555 296715517 32900481#0 32900481#1 32900481#2 32900481#3 32900485 32900488#0 32900488#1 32900488#2 32900488#3 32900498#0 32900498#1 32900498#2 32900499 32900502#0 32900502#1 32900502#2 32900504 32900505#0 32900505#1 32900506 32900507 32933674 32933686 357265150 357265153#0 357265153#1 357265153#2 357265153#3 357265153#4 373795575 378118810#0 378118810#1 378118811 378122091 378122230#0 378122230#1 381991688#0 408924700#3 408924700#4 409044039#0 409044039#1 409044039#2 409044039#3 409044039#4 409139012 409243928#0 409243928#1 409243928#2 409243929#0 409243929#1 409243929#2 409245126#0 409245126#1 409245126#2 409333977 409333979 409333980#0 409333980#1 409333980#2 409333981#0 409333981#1 409333982 422509560 422632975 75117832#0 75117832#1 75117832#10 75117832#2 75117832#3 75117832#4 75117832#5 75117832#6 75117832#7 75117832#8 75117832#9 75117911#0 75117911#1 75117911#10 75117911#11 75117911#12 75117911#2 75117911#3 75117911#4 75117911#5 75117911#6 75117911#7 75117911#8 75117911#9 75810146 77058961#0 77058961#1 77058961#2 77058966 77058971 77058975#0 77058975#1 77058983#0 77058983#1 77058988 77065287#0 77065287#1 77065287#2 77065287#3 77065287#4 77065287#5 77065287#6 77065289 77065292 77065294#0 77065294#1" />
  <!-- name="el val" -->
  <taz id="55" edges="-123483728#0 -123483728#1 -123483728#2 -123483728#3 -123483728#4 -123483741 -123483779 -123483798#0 -123483798#1 -123483820 -123483857#1 -123483857#2 -123483857#3 -123483857#4 -123483861 -123483885 -123483920#0 -123483920#1 -123483951#0 -123483951#1 -123483998 -123483999 -123484020#0 -123484020#1 -123484020#2 -123484020#3 -123484027#0 -123484027#1 -123484050#0 -123484050#1 -123484063 -123484094#0 -123484094#1 -123484097 -123484130 -123484145 -123484158#0 -123484158#1 -123484163#0 -123484163#1 -123484163#2 -123800360 -23907627#0 -23907627#1 -23907627#2 -23907627#3 -23907627#4 -23907627#5 -23907627#6 -23907627#7 -23907627#8 -23907627#9 -23971696#0 -23971696#1 -23971696#2 -23971697#0 -23971697#1 -23971697#2 -23971697#3 -23971699#0 -23971699#1 -23971702#0 -23971702#1 -23971712#0 -23971712#1 -23971712#2 -23971712#3 -23971712#4 -24560962#0 -24560962#1 -24560963#0 -24560963#1 -24560963#2 -24560963#3 -24560963#4 -28355491#0 -28355491#1 -28355491#2 -28355491#3 -28355493 -28355497 -28355498 -28355499 -28355500#0 -28355500#1 -28355503 -28355505#0 -28355505#1 -28355509 -28355510 -28355526 -28355528 -28355530 -28355532#0 -28355532#1 -28355532#2 -28355534 -28355535#0 -28355535#1 -320348772#0 -320348772#1 -36244608#0 -36244608#1 -36244608#2 -36244608#3 -378121653 -75117816#0 -75117816#1 -75117816#10 -75117816#11 -75117816#12 -75117816#2 -75117816#3 -75117816#4 -75117816#5 -75117816#6 -75117816#7 -75117816#8 -75117816#9 -75117892 -75689947#4 -75689947#5 -75689947#6 -85526059#0 -85526059#1 -85526062 123483728#0 123483728#1 123483728#2 123483728#3 123483728#4 123483741 123483760#4 123483779 123483798#0 123483798#1 123483820 123483857#1 123483857#2 123483857#3 123483857#4 123483861 123483885 123483915#0 123483915#1 123483915#2 123483915#3 123483920#0 123483920#1 123483951#0 123483951#1 123483960#0 123483960#1 123483998 123483999 123484020#0 123484020#1 123484020#2 123484020#3 123484027#0 123484027#1 123484050#0 123484050#1 123484055 123484063 123484094#0 123484094#1 123484097 123484118 123484130 123484145 123484158#0 123484158#1 123484163#0 123484163#1 123484163#2 123800360 151292453#10 151292453#11 151292453#5 151292453#6 151292453#7 151292453#8 151292453#9 23907624 23907625#0 23907625#1 23907625#2 23907625#3 23907625#4 23907627#0 23907627#1 23907627#2 23907627#3 23907627#4 23907627#5 23907627#6 23907627#7 23907627#8 23907627#9 23907628#0 23907628#1 23907628#2 23907628#3 23907628#4 23907639#0 23907639#1 23907639#2 23907639#3 23971696#0 23971696#1 23971696#2 23971697#0 23971697#1 23971697#2 23971697#3 23971699#0 23971699#1 23971702#0 23971702#1 23971712#0 23971712#1 23971712#2 23971712#3 23971712#4 24560962#0 24560962#1 24560963#0 24560963#1 24560963#2 24560963#3 24560963#4 256585718#0 256585718#1 256585718#2 256585718#3 28355491#0 28355491#1 28355491#2 28355491#3 28355493 28355497 28355498 28355499 28355500#0 28355500#1 28355503 28355505#0 28355505#1 28355509 28355510 28355525 28355526 28355528 28355530 28355532#0 28355532#1 28355532#2 28355534 28355535#0 28355535#1 320348772#0 320348772#1 36244608#0 36244608#1 36244608#2 36244608#3 378121652#0 378121652#1 378121653 378121655 378121656 408924700#0 408924700#1 409243928#0 75117816#0 75117816#1 75117816#10 75117816#11 75117816#12 75117816#2 75117816#3 75117816#4 75117816#5 75117816#6 75117816#7 75117816#8 75117816#9 75117892 75689947#4 75689947#5 75689947#6 85526059#0 85526059#1 85526060#0 85526060#1 85526060#2 85526062 85708781 85708782" />
</tazs>
