<!-- Generated by mutraff_tazcalc. alvaro.paricio@uah.es -->
  -->
<tazs>
  <!-- name="penalty_chorrillo" -->
  <taz id="1120010" edges="-118195325#1 -118195327#0 -118195327#1 -118195327#2 -118195327#3 -118195327#4 -118195327#5 -218162389#1 118195325#1 118195326#0 118195326#1 118195326#2 118195326#3 118195326#4 118195326#5 118195327#0 118195327#1 118195327#2 118195327#3 118195327#4 118195327#5 118195330#0 118195330#1 118195331 118195332 118195334 118195335 118195338 118195339 118195341 118195343 118195344#0 118195344#1 118195344#2 121986464 218162389#1 242703072 252184786 32933487 32933499 373638486 373638489#0 373638489#1 373638529 373638534 409064668#0 409064668#1 409064668#2 409064668#3 409064668#4 409064673 75117831 75117855 75117863#0 75117863#1 75117863#2 75117872 75117890 75689698#0 75689698#1 75689698#2 75689698#3 75689698#4 75689698#5 75689698#6 75689698#7" />
  <!-- name="penalty_manuelazana" -->
  <taz id="1120011" edges="-158273354#0 -158273354#1 -221080549 -28343686#10 -28343686#9 151292457 151292458 151292459 151292463 151292464#0 151292464#1 151292464#2 151292465#1 151292465#2 151292465#3 158273354#0 158273354#1 158350668#0 158350668#1 158350671 19916359#0 19916359#1 19916359#2 19916359#3 19916359#4 19916359#5 19916359#6 19916359#7 221080549 28343686#10 28343686#9 32900534 32900540 380895136#0 380895136#1 76508326#2 76508328 77806016#4 77806025#0" />
  <!-- name="penalty_puertamadrid" -->
  <taz id="1120012" edges="-191930236#0 -191930236#1 -23905091#0 -32401945#1 -32402199#0 -32402199#1 -32402199#2 158350668#4 191930236#0 191930236#1 23905091#0 28343782#0 28343782#1 28343782#2 28343782#3 28343782#4 28343782#5 28343782#6 28343782#7 32401911 32401917 32401945#1 32401949 32402031 32402088 32402162 32402199#0 32402199#1 32402199#2 32402214 47002797" />
</tazs>
