<!-- Generated by mutraff_tazcalc. alvaro.paricio@uah.es -->
  -->
<tazs>
  <!-- name="Firemen_path" -->
  <taz id="Firemen_path" edges="-106134323 -106134330#0 -106134330#1 -106134372 -123021280#3 -23881407#0 -254312696 -256287033 -256362052#4 -75117822#0 -75117822#1 -75117853 -75117862#0 -75117862#1 -75117888 -91348386#0 -91348386#1 -91348386#2 -91348386#3 -91348386#4 -91348386#5 -91348386#6 -91348386#7 -91348386#8 106134323 106134330#0 106134330#1 106134366 106134372 106134374 106134375 106134383 106134388#0 106134388#1 106134388#2 106134388#3 106134388#4 123021280#3 151292466#0 151292466#1 151292466#2 151292468 19916361#0 19916361#1 19916361#2 23859062#0 23867498 23867499#0 23867499#1 23867499#2 23867499#3 23867499#4 23867499#5 23867499#6 23867507 23867509 23867718#0 23867718#1 23881407#0 254312687 254312696 256287033 256362052#4 32933577#0 32933585 409076847#3 41222512#1 75117822#0 75117822#1 75117826#0 75117826#1 75117826#2 75117826#3 75117826#4 75117826#5 75117830#0 75117853 75117862#0 75117862#1 75117888 75117902#0 75117902#1 75117908#0 75117908#1 75117908#2 75117908#3 75117908#4 75117908#5 75117908#6 75117910#0 91348386#0 91348386#1 91348386#2 91348386#3 91348386#4 91348386#5 91348386#6 91348386#7 91348386#8 91348403#0 91348403#1" />
  <!-- name="Policemen_path_1" -->
  <taz id="Policemen_path" edges="-23971567#4 -23971683#0 -44785747 -69966120#5 -75117824#2 -75117824#3 -75117873 -75117884#0 -75117893 -75810137 112154460 151082169 151082174 151082181 151082184 151082190#0 151082190#1 151082190#2 151082190#3 151292466#0 151292466#1 151292466#2 151292468 151292470 151292473 23859062#0 23867718#0 23867718#1 23907555#0 23907555#1 23907555#2 23907555#3 23971567#4 23971640 23971646#0 23971646#1 23971646#2 23971647#0 23971647#1 23971650 23971683#0 256214619 28343758#1 314111997#0 314111997#1 314111997#2 314111998 314111999#0 314111999#1 409076847#3 44785746 44785747 69966120#5 71213418 71213419 71213423#0 71213423#1 75117814 75117824#2 75117824#3 75117845#0 75117845#1 75117873 75117884#0 75117893 75117906 75810137" />
</tazs>
