<!-- Generated by mutraff_tazcalc. alvaro.paricio@uah.es -->
  -->
<tazs>
  <!-- name="Centro-Historico" -->
  <taz id="1000" edges="-158255565 -158255574#0 -158255574#1 -158255574#2 -158255574#3 -158350660 -158350661 -191926973#0 -191926973#1 -191930236#0 -191930237 -191932329#0 -191932329#1 -192156453 -192156456 -192156459 -192156461#0 -192156461#1 -192156461#2 -192156461#3 -192156461#4 -192156462 -192156463#0 -192156463#1 -192156583#0 -192156583#1 -192156583#2 -23352493#0 -23352493#1 -23352493#2 -23352493#3 -23352493#4 -23352493#5 -23352493#6 -23858944#0 -23858944#1 -23858944#2 -23858944#3 -23869711#0 -23869711#1 -23869711#2 -23869997 -23870088 -23870217#0 -23870217#1 -23881407#1 -23904430 -23904431 -23904435#0 -23904435#1 -23904436#0 -23904436#1 -23904447#0 -23904447#1 -23904468#0 -23904468#1 -23904477 -23904499 -23904506#0 -23904598 -23905091#2 -23905091#3 -23905091#4 -23905116 -252184789 -256287032#0 -256287032#1 -256287033 -259222625#0 -259222625#1 -259222625#2 -278178991 -28343725#0 -28343725#1 -28343725#2 -28343725#3 -28343725#4 -28343728#0 -28343728#1 -28343728#2 -28343728#3 -28343728#4 -28355562 -28355565#0 -28355565#1 -296924215 -296924252 -32401945#0 -32402199#1 -32402199#2 -32403229 -32403591 -339795792 -355350993#0 -355350993#1 -36248187#0 -36248187#1 -36248211 -36248920#0 -36248920#1 -36248920#2 -36248958#0 -36248958#1 -36249236#0 -36249236#1 -373046685 -385760032 -408875678#0 -408875678#1 -408875679#0 -408875679#1 -408875679#2 -408875679#3 -408875679#4 -408875679#5 -408880654#0 -408880654#1 -408961939 -408961940 -409041501#7 -421819873 -421819916#0 -421819916#1 -421819916#2 -422507344#1 -422507344#2 -422507344#3 -422507344#4 -53161690#0 -53161690#1 -61238144 -61238145#0 -61238145#1 -61238148#0 -61238148#1 -61238148#2 -61238148#3 -61312529 -61312536#0 -61312536#1 -61312536#2 -61312536#3 -77058958#0 -77058958#1 -77058960#0 -77058960#1 -77058980 -91348386#4 -91348386#5 -91348386#6 -91348386#7 133787497#0 133787497#1 133787497#2 133787497#3 158255574#0 158255574#1 158255574#2 158255574#3 158350660 158350661 191926973#0 191926973#1 191930236#0 191930237 191932329#0 191932329#1 192156453 192156455 192156456 192156457 192156458 192156459 192156461#0 192156461#1 192156461#2 192156461#3 192156461#4 192156462 192156463#0 192156463#1 192156583#0 192156583#1 192156583#2 197935586#1 197935587 23352493#0 23352493#1 23352493#2 23352493#3 23352493#4 23352493#5 23352493#6 23352524 23858590#0 23858590#1 23858590#2 23858590#3 23858625#0 23858625#1 23858625#2 23858625#3 23858625#4 23858625#5 23858626#0 23858626#1 23858674#0 23858674#1 23858696#0 23858696#1 23858696#2 23858696#3 23858696#4 23858696#5 23858696#6 23858749#4 23858937#0 23858937#1 23858937#2 23858937#3 23858937#4 23867499#5 23869711#0 23869711#1 23869711#2 23869997 23870088 23870176 23870217#0 23870217#1 23870257 23881407#1 23904423#0 23904423#1 23904423#2 23904423#3 23904430 23904431 23904435#0 23904435#1 23904436#0 23904436#1 23904447#0 23904447#1 23904464 23904468#0 23904468#1 23904477 23904499 23904502#0 23904502#1 23904506#0 23904598 23904618#0 23904618#1 23905091#2 23905091#3 23905091#4 23905116 23905117#0 23905117#1 23905117#2 23905117#3 248064929 25158824#0 25158824#1 252184788#0 252184788#1 252184788#2 252184789 252184790#0 252184790#1 252184791 252184792 255065274 256287032#0 256287032#1 256287033 256362045 259222624 259222625#0 259222625#1 259222625#2 259646800 259646801#0 259646801#1 259646801#2 278178991 28343677#0 28343677#1 28343677#2 28343725#0 28343725#1 28343725#2 28343725#3 28343725#4 28343728#0 28343728#1 28343728#2 28343728#3 28343728#4 28355562 28355565#0 28355565#1 296924215 296924252 315672087 32401851#0 32401851#1 32401851#2 32401851#3 32401945#0 32402199#1 32402199#2 32402836#0 32402836#1 32402836#2 32402836#3 32403159#0 32403159#1 32403159#2 32403209 32403419#0 32403419#1 32403419#2 32403419#3 32403419#4 32403419#5 32403591 32403593#0 32403593#1 32907265#1 32907265#2 339795792 339795797 355350993#0 355350993#1 36247684#0 36247684#1 36247684#2 36247684#3 36247763#0 36247763#1 36247800 36248187#0 36248187#1 36248211 36248644#0 36248920#0 36248920#1 36248920#2 36248958#0 36248958#1 36249236#0 36249236#1 373046685 385760032 385760033 385760034#0 385760034#1 385760034#2 408875678#0 408875678#1 408875679#0 408875679#1 408875679#2 408875679#3 408875679#4 408875679#5 408880654#0 408880654#1 408880657 408961936 408961939 408961940 409041501#7 409052898 409578704 421819873 421819916#0 421819916#1 421819916#2 422507344#1 422507344#2 422507344#3 422507344#4 53161690#0 53161690#1 53161696 61238144 61238145#0 61238145#1 61238146#0 61238146#1 61238148#0 61238148#1 61238148#2 61238148#3 61238360#0 61238360#1 61312526#0 61312526#1 61312528 61312530#0 61312530#1 61312530#2 61312530#3 61312536#0 61312536#1 61312536#2 61312536#3 61312542#0 61312542#1 61312543 69966121#0 69966121#1 75117818 75117850#0 75117850#1 75117850#2 75117868#0 75117868#1 75117902#1 75482914#0 75482914#1 75482916#0 75482916#1 75482916#2 75482916#3 75482916#4 75482916#5 75482916#6 75482916#7 77058958#0 77058958#1 77058960#0 77058960#1 77058980 77058981 78579994 91348386#4 91348386#5 91348386#6 91348386#7 91348410" />
  <!-- name="El_Chorrillo" -->
  <taz id="1001" edges="-106134328 -106134392#0 -106134392#1 -106134392#2 -118195325#0 -118195325#1 -118195327#0 -118195327#1 -118195327#2 -118195327#3 -118195327#4 -118195327#5 -118201157 -118201170#0 -118201170#1 -118201170#2 -118201170#3 -120509978 -120510394 -120510395 -120510396 -120510397 -123021275 -123021276 -123021280#0 -123021280#1 -129144261 -129144289#0 -129144289#1 -129144289#2 -129144299 -129144301 -154170658#0 -154170658#1 -154170658#2 -154170658#3 -154170688 -154170701 -154170703#0 -154170703#1 -154170705#0 -154170705#1 -154170709 -154170717 -154170742#0 -154170742#1 -194778550#0 -194778550#1 -194778550#2 -194778551 -194778553 -194778667#0 -194778667#1 -194778667#2 -194778667#3 -196691542#0 -196691542#1 -196691546#0 -196691546#1 -218162389#0 -218162389#1 -23881461#0 -23881461#1 -23881461#2 -23881461#3 -23881461#4 -23881461#5 -23907558 -23957264#0 -23957264#1 -23957500#0 -23957500#1 -23957500#2 -23957501#0 -23957501#1 -23957516#0 -23957516#1 -23957516#2 -23957517#0 -23957517#1 -23957517#2 -23957517#3 -23957518 -23957520#0 -23957520#1 -23957520#2 -23957527#0 -23957527#1 -23957529#0 -23957529#1 -23957529#2 -23957529#3 -23957529#4 -23957545 -23957556#0 -23957556#1 -23957558#0 -23957558#1 -23957558#2 -23971679#0 -23971679#1 -23971679#2 -24038130#0 -24038130#1 -24038130#2 -24038135#1 -242703040#0 -242703040#1 -242703040#2 -242703040#3 -242703040#4 -242703042 -242703045#0 -242703045#1 -242703046 -242703047#0 -242703047#1 -242703048#0 -242703048#1 -242703049#0 -242703049#1 -242703049#2 -242703050 -242703051#0 -242703051#1 -242703052 -242703053 -242703054#0 -242703054#1 -242703056#0 -242703056#1 -242703062 -242703063 -242703064#0 -242703064#1 -242703069#0 -242703069#1 -249995218 -252184785#1 -252184785#2 -252184785#3 -252184787 -254312682#0 -254312682#1 -254312690 -254312692 -254312696 -254312697 -254542623 -254542624#0 -254542624#1 -254542625 -254542627 -28343753#0 -28343753#1 -28343754 -28343755#0 -28343755#1 -28343755#2 -28343755#3 -301073281 -301073295 -313839707#0 -313839707#1 -313839707#2 -313839708 -314106594 -314106595#0 -314106595#1 -314106596 -314106597 -314112001 -32900515#0 -32900515#1 -32907386#0 -32907386#1 -32907386#2 -32907398 -32907401#0 -32907401#1 -32933482#0 -32933482#1 -32933482#2 -32933482#3 -32933489#0 -32933489#1 -32933489#2 -32933533#0 -32933533#1 -32933533#2 -32933533#3 -32933553 -32933604 -32933615#0 -32933615#1 -32933615#2 -32933616#0 -32933616#1 -32933616#2 -32933628 -329736568#0 -329736568#1 -344082739#0 -344082739#1 -344082741 -344082744#0 -344082744#1 -344082745 -344082748#0 -344082748#1 -344082749#0 -344082749#1 -344082751 -344082752 -344082754#0 -344082754#1 -344082756#0 -344082756#1 -344082756#2 -344082757 -344082758#0 -344082758#1 -344082758#2 -344082759 -344082785#0 -344082785#1 -344082789#0 -344082789#1 -344082789#2 -344082789#3 -35968925#0 -35968925#1 -35968926 -35968927 -373638487 -373638488#0 -373638488#1 -373638488#2 -373638490#0 -373638490#1 -373638490#2 -373638490#3 -373638490#4 -373638490#5 -409073646 -409073647#0 -409073647#1 -409073648 -409073649#0 -409073649#1 -409073650#0 -409073650#1 -409073650#2 -409076845 -422736348#0 -422736348#1 -433171722 -443446515#0 -443446515#1 -443446515#2 -443446515#3 -46925280 -69966120#5 -75117835#0 -75117835#1 -75117835#2 -75117840 -75117849#0 -75117849#1 -75117849#2 -75117865 -75117866#0 -75117866#1 -75117874#0 -75117874#1 -75117883#0 -75117883#1 -75117883#2 -75117884#0 -75117884#1 -75117884#2 -75117884#3 -75117884#4 -75117886 -75117887#0 -75117887#1 -75117887#2 -75117896 -75117905 -75117923#0 -75117923#1 -75117923#2 -75117923#3 -75117923#4 -75117923#5 -75117926#0 -75117926#1 -75117926#2 -75117926#3 -75117926#4 -75126438#0 -75126438#1 -75810143 -75810150 -76259307 -76508323#0 -76508323#1 -77058967 -77702064#0 -77702064#1 -91348386#0 -91348386#1 -91348386#2 -93098934#0 -93098934#1 -93098934#2 106134328 106134392#0 106134392#1 106134392#2 112154460 118195325#0 118195325#1 118195326#0 118195326#1 118195326#2 118195326#3 118195326#4 118195326#5 118195327#0 118195327#1 118195327#2 118195327#3 118195327#4 118195327#5 118195330#0 118195330#1 118195331 118195332 118195333 118195334 118195335 118195337 118195338 118195339 118195340 118195341 118195342#0 118195342#1 118195342#2 118195343 118195344#0 118195344#1 118195344#2 118201157 118201170#0 118201170#1 118201170#2 118201170#3 120509978 120510393#0 120510393#1 120510393#2 120510393#3 120510394 120510395 120510396 120510397 121986464 123021275 123021276 123021280#0 123021280#1 129144261 129144289#0 129144289#1 129144289#2 129144299 129144301 151292466#1 151292466#2 154170658#0 154170658#1 154170658#2 154170658#3 154170688 154170701 154170703#0 154170703#1 154170705#0 154170705#1 154170709 154170717 154170742#0 154170742#1 161482000#2 161482000#3 194778550#0 194778550#1 194778550#2 194778551 194778553 194778667#0 194778667#1 194778667#2 194778667#3 196691542#0 196691542#1 196691546#0 196691546#1 218162387 218162389#0 218162389#1 23867718#0 23881461#0 23881461#1 23881461#2 23881461#3 23881461#4 23881461#5 23907555#1 23907555#2 23907555#3 23907558 23907575#0 23907576 23907578#0 23907578#8 23907583#4 23907583#5 23907584#0 23907584#1 23957264#0 23957264#1 23957267#0 23957267#1 23957267#7 23957500#0 23957500#1 23957500#2 23957501#0 23957501#1 23957507#0 23957507#1 23957507#2 23957507#3 23957516#0 23957516#1 23957516#2 23957517#0 23957517#1 23957517#2 23957517#3 23957518 23957520#0 23957520#1 23957520#2 23957527#0 23957527#1 23957529#0 23957529#1 23957529#2 23957529#3 23957529#4 23957530#0 23957530#1 23957544#0 23957544#1 23957545 23957556#0 23957556#1 23957558#0 23957558#1 23957558#2 23971663 23971679#0 23971679#1 23971679#2 24038130#0 24038130#1 24038130#2 24038135#1 242703040#0 242703040#1 242703040#2 242703040#3 242703040#4 242703042 242703045#0 242703045#1 242703046 242703047#0 242703047#1 242703048#0 242703048#1 242703049#0 242703049#1 242703049#2 242703050 242703051#0 242703051#1 242703052 242703053 242703054#0 242703054#1 242703056#0 242703056#1 242703062 242703063 242703064#0 242703064#1 242703069#0 242703069#1 242703072 249995214 249995215 249995216#0 249995216#1 249995217#0 249995217#1 249995218 249995219 249995221 252184783 252184784 252184785#1 252184785#2 252184785#3 252184786 252184787 254312680#0 254312680#1 254312680#2 254312680#3 254312681 254312682#0 254312682#1 254312687 254312689 254312690 254312691 254312692 254312695 254312696 254312697 254542623 254542624#0 254542624#1 254542625 254542627 256214619 27540909#0 27540909#1 27540909#2 27540909#3 27540909#4 27540909#5 27540909#6 27540918 27540921 28343753#0 28343753#1 28343754 28343755#0 28343755#1 28343755#2 28343755#3 28343758#0 28343758#1 301073281 301073295 313839707#0 313839707#1 313839707#2 313839708 314106594 314106595#0 314106595#1 314106596 314106597 314111996 314111997#0 314111997#1 314111997#2 314111998 314111999#0 314111999#1 314112001 32900510 32900515#0 32900515#1 32900516 32907386#0 32907386#1 32907386#2 32907391#0 32907391#1 32907393 32907397#0 32907397#1 32907397#2 32907397#3 32907397#4 32907398 32907401#0 32907401#1 32933482#0 32933482#1 32933482#2 32933482#3 32933483 32933487 32933489#0 32933489#1 32933489#2 32933499 32933533#0 32933533#1 32933533#2 32933533#3 32933553 32933559#0 32933559#1 32933566#0 32933566#1 32933567#1 32933569 32933577#0 32933577#1 32933577#2 32933577#3 32933581 32933585 32933604 32933615#0 32933615#1 32933615#2 32933616#0 32933616#1 32933616#2 32933628 32933652 329736568#0 329736568#1 344082739#0 344082739#1 344082741 344082744#0 344082744#1 344082745 344082748#0 344082748#1 344082749#0 344082749#1 344082751 344082752 344082754#0 344082754#1 344082755#0 344082755#1 344082756#0 344082756#1 344082756#2 344082757 344082758#0 344082758#1 344082758#2 344082759 344082785#0 344082785#1 344082789#0 344082789#1 344082789#2 344082789#3 35968924 35968925#0 35968925#1 35968926 35968927 373638486 373638487 373638488#0 373638488#1 373638488#2 373638489#0 373638489#1 373638490#0 373638490#1 373638490#2 373638490#3 373638490#4 373638490#5 373638529 373638534 378143338 378143339 384211442 384211601 409064668#0 409064668#1 409064668#2 409064668#3 409064668#4 409064673 409073639#0 409073639#1 409073639#2 409073639#3 409073639#4 409073639#5 409073642#0 409073642#1 409073643#1 409073644 409073645 409073646 409073647#0 409073647#1 409073648 409073649#0 409073649#1 409073650#0 409073650#1 409073650#2 409076844#0 409076844#1 409076845 409076846#0 409076846#1 409076846#2 409076846#3 409076847#3 422736348#0 422736348#1 433171722 443446515#0 443446515#1 443446515#2 443446515#3 46925280 69708147#0 69708147#1 69708149#0 69708149#1 69966120#5 75117814 75117817 75117821 75117825 75117831 75117834 75117835#0 75117835#1 75117835#2 75117840 75117842#0 75117842#1 75117843#0 75117843#1 75117845#0 75117845#1 75117847#0 75117847#1 75117847#2 75117848 75117849#0 75117849#1 75117849#2 75117855 75117859#0 75117859#1 75117859#2 75117859#3 75117863#0 75117863#1 75117863#2 75117865 75117866#0 75117866#1 75117867 75117872 75117874#0 75117874#1 75117875 75117883#0 75117883#1 75117883#2 75117884#0 75117884#1 75117884#2 75117884#3 75117884#4 75117885 75117886 75117887#0 75117887#1 75117887#2 75117890 75117894 75117896 75117905 75117906 75117910#3 75117910#4 75117910#5 75117910#6 75117910#7 75117914#0 75117914#1 75117923#0 75117923#1 75117923#2 75117923#3 75117923#4 75117923#5 75117924#0 75117924#1 75117924#2 75117924#3 75117924#4 75117924#5 75117925 75117926#0 75117926#1 75117926#2 75117926#3 75117926#4 75123299 75123352 75126438#0 75126438#1 75689698#0 75689698#1 75689698#2 75689698#3 75689698#4 75689698#5 75689698#6 75689698#7 75810143 75810145 75810150 75810154#0 75810154#1 75810154#2 75810154#3 76259307 76508305 76508310#0 76508310#1 76508310#2 76508310#3 76508312#0 76508312#1 76508312#2 76508323#0 76508323#1 76508330#0 77058967 77058973 77058978 77702064#0 77702064#1 78579993#0 78579993#1 78579993#2 78579995 91348386#0 91348386#1 91348386#2 91348403#0 91972498#0 91972498#1 91972498#2 91972498#3 91973638#0 91973638#1 93098932#0 93098932#1 93098932#2 93098932#3 93098932#4 93098932#5 93098934#0 93098934#1 93098934#2" />
  <!-- name="juan_austria_2" -->
  <taz id="1002" edges="-156663597#0 -156663597#1 -156663597#2 -156663597#3 -156663597#4 -156663599#0 -156663599#1 -158349119#0 -158349119#1 -158349119#2 -248061780#0 -248061780#1 -248061780#2 -256644245 -28355552#0 -28355552#1 -28355552#2 -28355552#3 -28355552#4 -28355552#5 -28355552#6 -28355555 -32900481#0 -32900481#1 -32900481#2 -32900481#3 -32933686 -357265153#0 -357265153#1 -357265153#2 -357265153#3 -357265153#4 -373795575 -409333980#0 -409333980#1 -409333980#2 -409333982 156663585#0 156663585#1 156663585#2 156663585#3 156663585#4 156663585#5 156663593 156663594#0 156663594#1 156663596#1 156663596#2 156663596#3 156663597#0 156663597#1 156663597#2 156663597#3 156663597#4 156663598#0 156663598#1 156663598#2 156663598#3 156663599#0 156663599#1 158349119#0 158349119#1 158349119#2 227353607#0 227353607#1 227353607#2 227353608 227354783 23971732#1 24038167 24038170#7 248061778 248061780#0 248061780#1 248061780#2 248061781 256644245 256644246#0 256644246#1 256644246#2 256644246#3 256644247#0 256644247#1 256644252#0 256644252#1 256644252#2 256644253#0 256644253#1 256644253#2 256644253#3 28343768#2 28343768#3 28343768#4 28343768#5 28343768#6 28343768#7 28355552#0 28355552#1 28355552#2 28355552#3 28355552#4 28355552#5 28355552#6 28355553#0 28355553#1 28355555 32900481#0 32900481#1 32900481#2 32900481#3 32933686 357265153#0 357265153#1 357265153#2 357265153#3 357265153#4 373795575 409333979 409333980#0 409333980#1 409333980#2 409333981#0 409333981#1 409333982 75117911#0 75117911#1 75117911#2 75117911#3 75117911#4 75117911#5 75117911#6" />
  <!-- name="Distrito-II" -->
  <taz id="1003" edges="-123483789 -123483852 -156663586#0 -156663586#1 -156663597#0 -156663597#1 -156663597#2 -156663597#3 -156663597#4 -156663599#0 -156663599#1 -158349119#0 -158349119#1 -158349119#2 -23904519#1 -23904519#2 -23971716#0 -23971716#1 -23971716#2 -23971716#3 -23971716#4 -248061779 -248061780#0 -248061780#1 -248061780#2 -253086824 -253086826#0 -253086826#1 -253086826#2 -256644242 -256644245 -28355491#0 -28355552#0 -28355552#1 -28355552#2 -28355552#3 -28355552#4 -28355552#5 -28355552#6 -28355555 -32900481#0 -32900481#1 -32900481#2 -32900481#3 -32900502#0 -32900502#1 -32900502#2 -32900507 -32933686 -357265153#0 -357265153#1 -357265153#2 -357265153#3 -357265153#4 -372372755 -373795575 -381991688#1 -381991688#2 -409044039#0 -409044039#1 -409044039#2 -409044039#3 -409044039#4 -409333977 -409333980#0 -409333980#1 -409333980#2 -409333982 -422509560 -422632975 -77058988 -77065287#0 -77065287#1 -77065287#2 -77065287#3 -77065287#4 -77065287#5 -77065287#6 123483789 123483852 151292453#1 151292453#2 151292453#3 151292453#4 151292453#5 156663585#0 156663585#1 156663585#2 156663585#3 156663585#4 156663585#5 156663586#0 156663586#1 156663593 156663594#0 156663594#1 156663596#0 156663596#1 156663596#2 156663596#3 156663597#0 156663597#1 156663597#2 156663597#3 156663597#4 156663598#0 156663598#1 156663598#2 156663598#3 156663599#0 156663599#1 158349119#0 158349119#1 158349119#2 204970803#0 204970803#1 204970804 204970805 212506552 227353607#0 227353607#1 227353607#2 227353608 227354783 23859062#1 23859062#2 23859062#3 23904519#1 23904519#2 23904526#0 23904526#1 23904528#1 23904540#0 23904540#1 23907635#0 23971716#0 23971716#1 23971716#2 23971716#3 23971716#4 23971732#0 23971732#1 24038148 24038150#0 24038167 24038170#0 24038170#6 24038170#7 248061778 248061779 248061780#0 248061780#1 248061780#2 248061781 248061782 253086824 253086826#0 253086826#1 253086826#2 254407692#0 254407692#1 254899429#0 254899429#1 254899430 254899431#0 254899431#1 256585721#0 256644242 256644243 256644244 256644245 256644246#0 256644246#1 256644246#2 256644246#3 256644247#0 256644247#1 256644252#0 256644252#1 256644252#2 256644253#0 256644253#1 256644253#2 256644253#3 28343768#0 28343768#1 28343768#2 28343768#3 28343768#4 28343768#5 28343768#6 28343768#7 28355491#0 28355552#0 28355552#1 28355552#2 28355552#3 28355552#4 28355552#5 28355552#6 28355553#0 28355553#1 28355555 32900481#0 32900481#1 32900481#2 32900481#3 32900485 32900488#0 32900488#1 32900488#2 32900488#3 32900498#0 32900498#1 32900498#2 32900502#0 32900502#1 32900502#2 32900504 32900505#0 32900505#1 32900506 32900507 32933674 32933686 357265150 357265153#0 357265153#1 357265153#2 357265153#3 357265153#4 372372755 373795575 381991688#1 381991688#2 408924700#2 408924700#3 408924700#4 409044039#0 409044039#1 409044039#2 409044039#3 409044039#4 409243928#2 409245126#1 409245126#2 409333977 409333979 409333980#0 409333980#1 409333980#2 409333981#0 409333981#1 409333982 422509560 422632975 75117832#0 75117832#1 75117832#10 75117832#2 75117832#3 75117832#4 75117832#5 75117832#6 75117832#7 75117832#8 75117832#9 75117911#0 75117911#1 75117911#10 75117911#11 75117911#12 75117911#2 75117911#3 75117911#4 75117911#5 75117911#6 75117911#7 75117911#8 75117911#9 77058961#0 77058961#1 77058961#2 77058966 77058969 77058971 77058975#0 77058975#1 77058983#0 77058983#1 77058983#2 77058988 77065287#0 77065287#1 77065287#2 77065287#3 77065287#4 77065287#5 77065287#6 77065289" />
</tazs>
