<?xml version="1.0" encoding="UTF-8"?>

<!-- generated on Fri Oct 21 16:12:21 2016 by SUMO netgenerate Version 0.27.1
<?xml version="1.0" encoding="UTF-8"?>

<configuration xmlns:xsi="http://www.w3.org/2001/XMLSchema-instance" xsi:noNamespaceSchemaLocation="http://sumo.dlr.de/xsd/netgenerateConfiguration.xsd">

    <grid_network>
        <grid value="true"/>
        <grid.number value="16"/>
        <grid.length value="100"/>
        <grid.attach-length value="30"/>
    </grid_network>

    <output>
        <output-file value="canogrid_noBastra_adhocmaps_dirtraffic.net.xml"/>
        <plain-output-prefix value="canogrid_noBastra_adhocmaps_dirtraffic"/>
    </output>

    <building_defaults>
        <default.lanenumber value="1"/>
        <default.priority value="-1"/>
    </building_defaults>

    <report>
        <verbose value="true"/>
    </report>

</configuration>
-->

<net version="0.27" xmlns:xsi="http://www.w3.org/2001/XMLSchema-instance" xsi:noNamespaceSchemaLocation="http://sumo.dlr.de/xsd/net_file.xsd">

    <location netOffset="0.00,0.00" convBoundary="0.00,0.00,1560.00,1560.00" origBoundary="0.00,0.00,1560.00,1560.00" projParameter="!"/>

    <edge id=":0/0_0" function="internal">
        <lane id=":0/0_0_0" index="0" speed="13.90" length="50" shape="28.35,34.75 28.16,33.39 27.58,32.42 26.61,31.84 25.25,31.65"/>
    </edge>
    <edge id=":0/0_1" function="internal">
        <lane id=":0/0_1_0" index="0" speed="13.90" length="50" shape="28.35,34.75 28.35,25.25"/>
    </edge>
    <edge id=":0/0_2" function="internal">
        <lane id=":0/0_2_0" index="0" speed="13.90" length="50" shape="28.35,34.75 28.75,31.95 29.95,29.95 30.05,29.89"/>
    </edge>
    <edge id=":0/0_3" function="internal">
        <lane id=":0/0_3_0" index="0" speed="13.90" length="50" shape="28.35,34.75 29.17,33.51 30.00,33.10"/>
    </edge>
    <edge id=":0/0_16" function="internal">
        <lane id=":0/0_16_0" index="0" speed="13.90" length="50" shape="30.05,29.89 31.95,28.75 34.75,28.35"/>
    </edge>
    <edge id=":0/0_17" function="internal">
        <lane id=":0/0_17_0" index="0" speed="13.90" length="50" shape="30.00,33.10 30.82,33.51 31.65,34.75"/>
    </edge>
    <edge id=":0/0_4" function="internal">
        <lane id=":0/0_4_0" index="0" speed="13.90" length="50" shape="34.75,31.65 33.39,31.84 32.42,32.42 31.84,33.39 31.65,34.75"/>
    </edge>
    <edge id=":0/0_5" function="internal">
        <lane id=":0/0_5_0" index="0" speed="13.90" length="50" shape="34.75,31.65 25.25,31.65"/>
    </edge>
    <edge id=":0/0_6" function="internal">
        <lane id=":0/0_6_0" index="0" speed="13.90" length="50" shape="34.75,31.65 31.95,31.25 29.95,30.05 28.75,28.05 28.35,25.25"/>
    </edge>
    <edge id=":0/0_7" function="internal">
        <lane id=":0/0_7_0" index="0" speed="13.90" length="50" shape="34.75,31.65 33.51,30.82 33.10,30.00 33.51,29.18 34.75,28.35"/>
    </edge>
    <edge id=":0/0_8" function="internal">
        <lane id=":0/0_8_0" index="0" speed="13.90" length="50" shape="31.65,25.25 31.84,26.61 32.42,27.57 33.39,28.16 34.75,28.35"/>
    </edge>
    <edge id=":0/0_9" function="internal">
        <lane id=":0/0_9_0" index="0" speed="13.90" length="50" shape="31.65,25.25 31.65,34.75"/>
    </edge>
    <edge id=":0/0_10" function="internal">
        <lane id=":0/0_10_0" index="0" speed="13.90" length="50" shape="31.65,25.25 31.25,28.05 30.05,30.05 29.95,30.11"/>
    </edge>
    <edge id=":0/0_11" function="internal">
        <lane id=":0/0_11_0" index="0" speed="13.90" length="50" shape="31.65,25.25 30.82,26.49 30.00,26.90"/>
    </edge>
    <edge id=":0/0_18" function="internal">
        <lane id=":0/0_18_0" index="0" speed="13.90" length="50" shape="29.95,30.11 28.05,31.25 25.25,31.65"/>
    </edge>
    <edge id=":0/0_19" function="internal">
        <lane id=":0/0_19_0" index="0" speed="13.90" length="50" shape="30.00,26.90 29.18,26.49 28.35,25.25"/>
    </edge>
    <edge id=":0/0_12" function="internal">
        <lane id=":0/0_12_0" index="0" speed="13.90" length="50" shape="25.25,28.35 26.61,28.16 27.57,27.58 28.16,26.61 28.35,25.25"/>
    </edge>
    <edge id=":0/0_13" function="internal">
        <lane id=":0/0_13_0" index="0" speed="13.90" length="50" shape="25.25,28.35 34.75,28.35"/>
    </edge>
    <edge id=":0/0_14" function="internal">
        <lane id=":0/0_14_0" index="0" speed="13.90" length="50" shape="25.25,28.35 28.05,28.75 30.05,29.95 31.25,31.95 31.65,34.75"/>
    </edge>
    <edge id=":0/0_15" function="internal">
        <lane id=":0/0_15_0" index="0" speed="13.90" length="50" shape="25.25,28.35 26.49,29.17 26.90,30.00 26.49,30.82 25.25,31.65"/>
    </edge>
    <edge id=":0/1_0" function="internal">
        <lane id=":0/1_0_0" index="0" speed="13.90" length="50" shape="28.35,134.75 28.16,133.39 27.58,132.43 26.61,131.84 25.25,131.65"/>
    </edge>
    <edge id=":0/1_1" function="internal">
        <lane id=":0/1_1_0" index="0" speed="13.90" length="50" shape="28.35,134.75 28.35,125.25"/>
    </edge>
    <edge id=":0/1_2" function="internal">
        <lane id=":0/1_2_0" index="0" speed="13.90" length="50" shape="28.35,134.75 28.75,131.95 29.95,129.95 30.05,129.89"/>
    </edge>
    <edge id=":0/1_3" function="internal">
        <lane id=":0/1_3_0" index="0" speed="13.90" length="50" shape="28.35,134.75 29.17,133.51 30.00,133.10"/>
    </edge>
    <edge id=":0/1_16" function="internal">
        <lane id=":0/1_16_0" index="0" speed="13.90" length="50" shape="30.05,129.89 31.95,128.75 34.75,128.35"/>
    </edge>
    <edge id=":0/1_17" function="internal">
        <lane id=":0/1_17_0" index="0" speed="13.90" length="50" shape="30.00,133.10 30.82,133.51 31.65,134.75"/>
    </edge>
    <edge id=":0/1_4" function="internal">
        <lane id=":0/1_4_0" index="0" speed="13.90" length="50" shape="34.75,131.65 33.39,131.84 32.43,132.43 31.84,133.39 31.65,134.75"/>
    </edge>
    <edge id=":0/1_5" function="internal">
        <lane id=":0/1_5_0" index="0" speed="13.90" length="50" shape="34.75,131.65 25.25,131.65"/>
    </edge>
    <edge id=":0/1_6" function="internal">
        <lane id=":0/1_6_0" index="0" speed="13.90" length="50" shape="34.75,131.65 31.95,131.25 29.95,130.05 28.75,128.05 28.35,125.25"/>
    </edge>
    <edge id=":0/1_7" function="internal">
        <lane id=":0/1_7_0" index="0" speed="13.90" length="50" shape="34.75,131.65 33.51,130.83 33.10,130.00 33.51,129.17 34.75,128.35"/>
    </edge>
    <edge id=":0/1_8" function="internal">
        <lane id=":0/1_8_0" index="0" speed="13.90" length="50" shape="31.65,125.25 31.84,126.61 32.42,127.57 33.39,128.16 34.75,128.35"/>
    </edge>
    <edge id=":0/1_9" function="internal">
        <lane id=":0/1_9_0" index="0" speed="13.90" length="50" shape="31.65,125.25 31.65,134.75"/>
    </edge>
    <edge id=":0/1_10" function="internal">
        <lane id=":0/1_10_0" index="0" speed="13.90" length="50" shape="31.65,125.25 31.25,128.05 30.05,130.05 29.95,130.11"/>
    </edge>
    <edge id=":0/1_11" function="internal">
        <lane id=":0/1_11_0" index="0" speed="13.90" length="50" shape="31.65,125.25 30.82,126.49 30.00,126.90"/>
    </edge>
    <edge id=":0/1_18" function="internal">
        <lane id=":0/1_18_0" index="0" speed="13.90" length="50" shape="29.95,130.11 28.05,131.25 25.25,131.65"/>
    </edge>
    <edge id=":0/1_19" function="internal">
        <lane id=":0/1_19_0" index="0" speed="13.90" length="50" shape="30.00,126.90 29.18,126.49 28.35,125.25"/>
    </edge>
    <edge id=":0/1_12" function="internal">
        <lane id=":0/1_12_0" index="0" speed="13.90" length="50" shape="25.25,128.35 26.61,128.16 27.57,127.57 28.16,126.61 28.35,125.25"/>
    </edge>
    <edge id=":0/1_13" function="internal">
        <lane id=":0/1_13_0" index="0" speed="13.90" length="50" shape="25.25,128.35 34.75,128.35"/>
    </edge>
    <edge id=":0/1_14" function="internal">
        <lane id=":0/1_14_0" index="0" speed="13.90" length="50" shape="25.25,128.35 28.05,128.75 30.05,129.95 31.25,131.95 31.65,134.75"/>
    </edge>
    <edge id=":0/1_15" function="internal">
        <lane id=":0/1_15_0" index="0" speed="13.90" length="50" shape="25.25,128.35 26.49,129.17 26.90,130.00 26.49,130.83 25.25,131.65"/>
    </edge>
    <edge id=":0/10_0" function="internal">
        <lane id=":0/10_0_0" index="0" speed="13.90" length="50" shape="28.35,1034.75 28.16,1033.39 27.58,1032.43 26.61,1031.84 25.25,1031.65"/>
    </edge>
    <edge id=":0/10_1" function="internal">
        <lane id=":0/10_1_0" index="0" speed="13.90" length="50" shape="28.35,1034.75 28.35,1025.25"/>
    </edge>
    <edge id=":0/10_2" function="internal">
        <lane id=":0/10_2_0" index="0" speed="13.90" length="50" shape="28.35,1034.75 28.75,1031.95 29.95,1029.95 30.05,1029.89"/>
    </edge>
    <edge id=":0/10_3" function="internal">
        <lane id=":0/10_3_0" index="0" speed="13.90" length="50" shape="28.35,1034.75 29.17,1033.51 30.00,1033.10"/>
    </edge>
    <edge id=":0/10_16" function="internal">
        <lane id=":0/10_16_0" index="0" speed="13.90" length="50" shape="30.05,1029.89 31.95,1028.75 34.75,1028.35"/>
    </edge>
    <edge id=":0/10_17" function="internal">
        <lane id=":0/10_17_0" index="0" speed="13.90" length="50" shape="30.00,1033.10 30.82,1033.51 31.65,1034.75"/>
    </edge>
    <edge id=":0/10_4" function="internal">
        <lane id=":0/10_4_0" index="0" speed="13.90" length="50" shape="34.75,1031.65 33.39,1031.84 32.43,1032.43 31.84,1033.39 31.65,1034.75"/>
    </edge>
    <edge id=":0/10_5" function="internal">
        <lane id=":0/10_5_0" index="0" speed="13.90" length="50" shape="34.75,1031.65 25.25,1031.65"/>
    </edge>
    <edge id=":0/10_6" function="internal">
        <lane id=":0/10_6_0" index="0" speed="13.90" length="50" shape="34.75,1031.65 31.95,1031.25 29.95,1030.05 28.75,1028.05 28.35,1025.25"/>
    </edge>
    <edge id=":0/10_7" function="internal">
        <lane id=":0/10_7_0" index="0" speed="13.90" length="50" shape="34.75,1031.65 33.51,1030.83 33.10,1030.00 33.51,1029.17 34.75,1028.35"/>
    </edge>
    <edge id=":0/10_8" function="internal">
        <lane id=":0/10_8_0" index="0" speed="13.90" length="50" shape="31.65,1025.25 31.84,1026.61 32.42,1027.57 33.39,1028.16 34.75,1028.35"/>
    </edge>
    <edge id=":0/10_9" function="internal">
        <lane id=":0/10_9_0" index="0" speed="13.90" length="50" shape="31.65,1025.25 31.65,1034.75"/>
    </edge>
    <edge id=":0/10_10" function="internal">
        <lane id=":0/10_10_0" index="0" speed="13.90" length="50" shape="31.65,1025.25 31.25,1028.05 30.05,1030.05 29.95,1030.11"/>
    </edge>
    <edge id=":0/10_11" function="internal">
        <lane id=":0/10_11_0" index="0" speed="13.90" length="50" shape="31.65,1025.25 30.82,1026.49 30.00,1026.90"/>
    </edge>
    <edge id=":0/10_18" function="internal">
        <lane id=":0/10_18_0" index="0" speed="13.90" length="50" shape="29.95,1030.11 28.05,1031.25 25.25,1031.65"/>
    </edge>
    <edge id=":0/10_19" function="internal">
        <lane id=":0/10_19_0" index="0" speed="13.90" length="50" shape="30.00,1026.90 29.18,1026.49 28.35,1025.25"/>
    </edge>
    <edge id=":0/10_12" function="internal">
        <lane id=":0/10_12_0" index="0" speed="13.90" length="50" shape="25.25,1028.35 26.61,1028.16 27.57,1027.57 28.16,1026.61 28.35,1025.25"/>
    </edge>
    <edge id=":0/10_13" function="internal">
        <lane id=":0/10_13_0" index="0" speed="13.90" length="50" shape="25.25,1028.35 34.75,1028.35"/>
    </edge>
    <edge id=":0/10_14" function="internal">
        <lane id=":0/10_14_0" index="0" speed="13.90" length="50" shape="25.25,1028.35 28.05,1028.75 30.05,1029.95 31.25,1031.95 31.65,1034.75"/>
    </edge>
    <edge id=":0/10_15" function="internal">
        <lane id=":0/10_15_0" index="0" speed="13.90" length="50" shape="25.25,1028.35 26.49,1029.17 26.90,1030.00 26.49,1030.83 25.25,1031.65"/>
    </edge>
    <edge id=":0/11_0" function="internal">
        <lane id=":0/11_0_0" index="0" speed="13.90" length="50" shape="28.35,1134.75 28.16,1133.39 27.58,1132.43 26.61,1131.84 25.25,1131.65"/>
    </edge>
    <edge id=":0/11_1" function="internal">
        <lane id=":0/11_1_0" index="0" speed="13.90" length="50" shape="28.35,1134.75 28.35,1125.25"/>
    </edge>
    <edge id=":0/11_2" function="internal">
        <lane id=":0/11_2_0" index="0" speed="13.90" length="50" shape="28.35,1134.75 28.75,1131.95 29.95,1129.95 30.05,1129.89"/>
    </edge>
    <edge id=":0/11_3" function="internal">
        <lane id=":0/11_3_0" index="0" speed="13.90" length="50" shape="28.35,1134.75 29.17,1133.51 30.00,1133.10"/>
    </edge>
    <edge id=":0/11_16" function="internal">
        <lane id=":0/11_16_0" index="0" speed="13.90" length="50" shape="30.05,1129.89 31.95,1128.75 34.75,1128.35"/>
    </edge>
    <edge id=":0/11_17" function="internal">
        <lane id=":0/11_17_0" index="0" speed="13.90" length="50" shape="30.00,1133.10 30.82,1133.51 31.65,1134.75"/>
    </edge>
    <edge id=":0/11_4" function="internal">
        <lane id=":0/11_4_0" index="0" speed="13.90" length="50" shape="34.75,1131.65 33.39,1131.84 32.43,1132.43 31.84,1133.39 31.65,1134.75"/>
    </edge>
    <edge id=":0/11_5" function="internal">
        <lane id=":0/11_5_0" index="0" speed="13.90" length="50" shape="34.75,1131.65 25.25,1131.65"/>
    </edge>
    <edge id=":0/11_6" function="internal">
        <lane id=":0/11_6_0" index="0" speed="13.90" length="50" shape="34.75,1131.65 31.95,1131.25 29.95,1130.05 28.75,1128.05 28.35,1125.25"/>
    </edge>
    <edge id=":0/11_7" function="internal">
        <lane id=":0/11_7_0" index="0" speed="13.90" length="50" shape="34.75,1131.65 33.51,1130.82 33.10,1130.00 33.51,1129.17 34.75,1128.35"/>
    </edge>
    <edge id=":0/11_8" function="internal">
        <lane id=":0/11_8_0" index="0" speed="13.90" length="50" shape="31.65,1125.25 31.84,1126.61 32.42,1127.57 33.39,1128.16 34.75,1128.35"/>
    </edge>
    <edge id=":0/11_9" function="internal">
        <lane id=":0/11_9_0" index="0" speed="13.90" length="50" shape="31.65,1125.25 31.65,1134.75"/>
    </edge>
    <edge id=":0/11_10" function="internal">
        <lane id=":0/11_10_0" index="0" speed="13.90" length="50" shape="31.65,1125.25 31.25,1128.05 30.05,1130.05 29.95,1130.11"/>
    </edge>
    <edge id=":0/11_11" function="internal">
        <lane id=":0/11_11_0" index="0" speed="13.90" length="50" shape="31.65,1125.25 30.82,1126.49 30.00,1126.90"/>
    </edge>
    <edge id=":0/11_18" function="internal">
        <lane id=":0/11_18_0" index="0" speed="13.90" length="50" shape="29.95,1130.11 28.05,1131.25 25.25,1131.65"/>
    </edge>
    <edge id=":0/11_19" function="internal">
        <lane id=":0/11_19_0" index="0" speed="13.90" length="50" shape="30.00,1126.90 29.18,1126.49 28.35,1125.25"/>
    </edge>
    <edge id=":0/11_12" function="internal">
        <lane id=":0/11_12_0" index="0" speed="13.90" length="50" shape="25.25,1128.35 26.61,1128.16 27.57,1127.57 28.16,1126.61 28.35,1125.25"/>
    </edge>
    <edge id=":0/11_13" function="internal">
        <lane id=":0/11_13_0" index="0" speed="13.90" length="50" shape="25.25,1128.35 34.75,1128.35"/>
    </edge>
    <edge id=":0/11_14" function="internal">
        <lane id=":0/11_14_0" index="0" speed="13.90" length="50" shape="25.25,1128.35 28.05,1128.75 30.05,1129.95 31.25,1131.95 31.65,1134.75"/>
    </edge>
    <edge id=":0/11_15" function="internal">
        <lane id=":0/11_15_0" index="0" speed="13.90" length="50" shape="25.25,1128.35 26.49,1129.18 26.90,1130.00 26.49,1130.83 25.25,1131.65"/>
    </edge>
    <edge id=":0/12_0" function="internal">
        <lane id=":0/12_0_0" index="0" speed="13.90" length="50" shape="28.35,1234.75 28.16,1233.39 27.58,1232.43 26.61,1231.84 25.25,1231.65"/>
    </edge>
    <edge id=":0/12_1" function="internal">
        <lane id=":0/12_1_0" index="0" speed="13.90" length="50" shape="28.35,1234.75 28.35,1225.25"/>
    </edge>
    <edge id=":0/12_2" function="internal">
        <lane id=":0/12_2_0" index="0" speed="13.90" length="50" shape="28.35,1234.75 28.75,1231.95 29.95,1229.95 30.05,1229.89"/>
    </edge>
    <edge id=":0/12_3" function="internal">
        <lane id=":0/12_3_0" index="0" speed="13.90" length="50" shape="28.35,1234.75 29.17,1233.51 30.00,1233.10"/>
    </edge>
    <edge id=":0/12_16" function="internal">
        <lane id=":0/12_16_0" index="0" speed="13.90" length="50" shape="30.05,1229.89 31.95,1228.75 34.75,1228.35"/>
    </edge>
    <edge id=":0/12_17" function="internal">
        <lane id=":0/12_17_0" index="0" speed="13.90" length="50" shape="30.00,1233.10 30.82,1233.51 31.65,1234.75"/>
    </edge>
    <edge id=":0/12_4" function="internal">
        <lane id=":0/12_4_0" index="0" speed="13.90" length="50" shape="34.75,1231.65 33.39,1231.84 32.43,1232.43 31.84,1233.39 31.65,1234.75"/>
    </edge>
    <edge id=":0/12_5" function="internal">
        <lane id=":0/12_5_0" index="0" speed="13.90" length="50" shape="34.75,1231.65 25.25,1231.65"/>
    </edge>
    <edge id=":0/12_6" function="internal">
        <lane id=":0/12_6_0" index="0" speed="13.90" length="50" shape="34.75,1231.65 31.95,1231.25 29.95,1230.05 28.75,1228.05 28.35,1225.25"/>
    </edge>
    <edge id=":0/12_7" function="internal">
        <lane id=":0/12_7_0" index="0" speed="13.90" length="50" shape="34.75,1231.65 33.51,1230.82 33.10,1230.00 33.51,1229.17 34.75,1228.35"/>
    </edge>
    <edge id=":0/12_8" function="internal">
        <lane id=":0/12_8_0" index="0" speed="13.90" length="50" shape="31.65,1225.25 31.84,1226.61 32.42,1227.57 33.39,1228.16 34.75,1228.35"/>
    </edge>
    <edge id=":0/12_9" function="internal">
        <lane id=":0/12_9_0" index="0" speed="13.90" length="50" shape="31.65,1225.25 31.65,1234.75"/>
    </edge>
    <edge id=":0/12_10" function="internal">
        <lane id=":0/12_10_0" index="0" speed="13.90" length="50" shape="31.65,1225.25 31.25,1228.05 30.05,1230.05 29.95,1230.11"/>
    </edge>
    <edge id=":0/12_11" function="internal">
        <lane id=":0/12_11_0" index="0" speed="13.90" length="50" shape="31.65,1225.25 30.82,1226.49 30.00,1226.90"/>
    </edge>
    <edge id=":0/12_18" function="internal">
        <lane id=":0/12_18_0" index="0" speed="13.90" length="50" shape="29.95,1230.11 28.05,1231.25 25.25,1231.65"/>
    </edge>
    <edge id=":0/12_19" function="internal">
        <lane id=":0/12_19_0" index="0" speed="13.90" length="50" shape="30.00,1226.90 29.18,1226.49 28.35,1225.25"/>
    </edge>
    <edge id=":0/12_12" function="internal">
        <lane id=":0/12_12_0" index="0" speed="13.90" length="50" shape="25.25,1228.35 26.61,1228.16 27.57,1227.57 28.16,1226.61 28.35,1225.25"/>
    </edge>
    <edge id=":0/12_13" function="internal">
        <lane id=":0/12_13_0" index="0" speed="13.90" length="50" shape="25.25,1228.35 34.75,1228.35"/>
    </edge>
    <edge id=":0/12_14" function="internal">
        <lane id=":0/12_14_0" index="0" speed="13.90" length="50" shape="25.25,1228.35 28.05,1228.75 30.05,1229.95 31.25,1231.95 31.65,1234.75"/>
    </edge>
    <edge id=":0/12_15" function="internal">
        <lane id=":0/12_15_0" index="0" speed="13.90" length="50" shape="25.25,1228.35 26.49,1229.18 26.90,1230.00 26.49,1230.83 25.25,1231.65"/>
    </edge>
    <edge id=":0/13_0" function="internal">
        <lane id=":0/13_0_0" index="0" speed="13.90" length="50" shape="28.35,1334.75 28.16,1333.39 27.58,1332.43 26.61,1331.84 25.25,1331.65"/>
    </edge>
    <edge id=":0/13_1" function="internal">
        <lane id=":0/13_1_0" index="0" speed="13.90" length="50" shape="28.35,1334.75 28.35,1325.25"/>
    </edge>
    <edge id=":0/13_2" function="internal">
        <lane id=":0/13_2_0" index="0" speed="13.90" length="50" shape="28.35,1334.75 28.75,1331.95 29.95,1329.95 30.05,1329.89"/>
    </edge>
    <edge id=":0/13_3" function="internal">
        <lane id=":0/13_3_0" index="0" speed="13.90" length="50" shape="28.35,1334.75 29.17,1333.51 30.00,1333.10"/>
    </edge>
    <edge id=":0/13_16" function="internal">
        <lane id=":0/13_16_0" index="0" speed="13.90" length="50" shape="30.05,1329.89 31.95,1328.75 34.75,1328.35"/>
    </edge>
    <edge id=":0/13_17" function="internal">
        <lane id=":0/13_17_0" index="0" speed="13.90" length="50" shape="30.00,1333.10 30.82,1333.51 31.65,1334.75"/>
    </edge>
    <edge id=":0/13_4" function="internal">
        <lane id=":0/13_4_0" index="0" speed="13.90" length="50" shape="34.75,1331.65 33.39,1331.84 32.43,1332.43 31.84,1333.39 31.65,1334.75"/>
    </edge>
    <edge id=":0/13_5" function="internal">
        <lane id=":0/13_5_0" index="0" speed="13.90" length="50" shape="34.75,1331.65 25.25,1331.65"/>
    </edge>
    <edge id=":0/13_6" function="internal">
        <lane id=":0/13_6_0" index="0" speed="13.90" length="50" shape="34.75,1331.65 31.95,1331.25 29.95,1330.05 28.75,1328.05 28.35,1325.25"/>
    </edge>
    <edge id=":0/13_7" function="internal">
        <lane id=":0/13_7_0" index="0" speed="13.90" length="50" shape="34.75,1331.65 33.51,1330.82 33.10,1330.00 33.51,1329.17 34.75,1328.35"/>
    </edge>
    <edge id=":0/13_8" function="internal">
        <lane id=":0/13_8_0" index="0" speed="13.90" length="50" shape="31.65,1325.25 31.84,1326.61 32.42,1327.57 33.39,1328.16 34.75,1328.35"/>
    </edge>
    <edge id=":0/13_9" function="internal">
        <lane id=":0/13_9_0" index="0" speed="13.90" length="50" shape="31.65,1325.25 31.65,1334.75"/>
    </edge>
    <edge id=":0/13_10" function="internal">
        <lane id=":0/13_10_0" index="0" speed="13.90" length="50" shape="31.65,1325.25 31.25,1328.05 30.05,1330.05 29.95,1330.11"/>
    </edge>
    <edge id=":0/13_11" function="internal">
        <lane id=":0/13_11_0" index="0" speed="13.90" length="50" shape="31.65,1325.25 30.82,1326.49 30.00,1326.90"/>
    </edge>
    <edge id=":0/13_18" function="internal">
        <lane id=":0/13_18_0" index="0" speed="13.90" length="50" shape="29.95,1330.11 28.05,1331.25 25.25,1331.65"/>
    </edge>
    <edge id=":0/13_19" function="internal">
        <lane id=":0/13_19_0" index="0" speed="13.90" length="50" shape="30.00,1326.90 29.18,1326.49 28.35,1325.25"/>
    </edge>
    <edge id=":0/13_12" function="internal">
        <lane id=":0/13_12_0" index="0" speed="13.90" length="50" shape="25.25,1328.35 26.61,1328.16 27.57,1327.57 28.16,1326.61 28.35,1325.25"/>
    </edge>
    <edge id=":0/13_13" function="internal">
        <lane id=":0/13_13_0" index="0" speed="13.90" length="50" shape="25.25,1328.35 34.75,1328.35"/>
    </edge>
    <edge id=":0/13_14" function="internal">
        <lane id=":0/13_14_0" index="0" speed="13.90" length="50" shape="25.25,1328.35 28.05,1328.75 30.05,1329.95 31.25,1331.95 31.65,1334.75"/>
    </edge>
    <edge id=":0/13_15" function="internal">
        <lane id=":0/13_15_0" index="0" speed="13.90" length="50" shape="25.25,1328.35 26.49,1329.18 26.90,1330.00 26.49,1330.83 25.25,1331.65"/>
    </edge>
    <edge id=":0/14_0" function="internal">
        <lane id=":0/14_0_0" index="0" speed="13.90" length="50" shape="28.35,1434.75 28.16,1433.39 27.58,1432.43 26.61,1431.84 25.25,1431.65"/>
    </edge>
    <edge id=":0/14_1" function="internal">
        <lane id=":0/14_1_0" index="0" speed="13.90" length="50" shape="28.35,1434.75 28.35,1425.25"/>
    </edge>
    <edge id=":0/14_2" function="internal">
        <lane id=":0/14_2_0" index="0" speed="13.90" length="50" shape="28.35,1434.75 28.75,1431.95 29.95,1429.95 30.05,1429.89"/>
    </edge>
    <edge id=":0/14_3" function="internal">
        <lane id=":0/14_3_0" index="0" speed="13.90" length="50" shape="28.35,1434.75 29.17,1433.51 30.00,1433.10"/>
    </edge>
    <edge id=":0/14_16" function="internal">
        <lane id=":0/14_16_0" index="0" speed="13.90" length="50" shape="30.05,1429.89 31.95,1428.75 34.75,1428.35"/>
    </edge>
    <edge id=":0/14_17" function="internal">
        <lane id=":0/14_17_0" index="0" speed="13.90" length="50" shape="30.00,1433.10 30.82,1433.51 31.65,1434.75"/>
    </edge>
    <edge id=":0/14_4" function="internal">
        <lane id=":0/14_4_0" index="0" speed="13.90" length="50" shape="34.75,1431.65 33.39,1431.84 32.43,1432.43 31.84,1433.39 31.65,1434.75"/>
    </edge>
    <edge id=":0/14_5" function="internal">
        <lane id=":0/14_5_0" index="0" speed="13.90" length="50" shape="34.75,1431.65 25.25,1431.65"/>
    </edge>
    <edge id=":0/14_6" function="internal">
        <lane id=":0/14_6_0" index="0" speed="13.90" length="50" shape="34.75,1431.65 31.95,1431.25 29.95,1430.05 28.75,1428.05 28.35,1425.25"/>
    </edge>
    <edge id=":0/14_7" function="internal">
        <lane id=":0/14_7_0" index="0" speed="13.90" length="50" shape="34.75,1431.65 33.51,1430.82 33.10,1430.00 33.51,1429.17 34.75,1428.35"/>
    </edge>
    <edge id=":0/14_8" function="internal">
        <lane id=":0/14_8_0" index="0" speed="13.90" length="50" shape="31.65,1425.25 31.84,1426.61 32.42,1427.57 33.39,1428.16 34.75,1428.35"/>
    </edge>
    <edge id=":0/14_9" function="internal">
        <lane id=":0/14_9_0" index="0" speed="13.90" length="50" shape="31.65,1425.25 31.65,1434.75"/>
    </edge>
    <edge id=":0/14_10" function="internal">
        <lane id=":0/14_10_0" index="0" speed="13.90" length="50" shape="31.65,1425.25 31.25,1428.05 30.05,1430.05 29.95,1430.11"/>
    </edge>
    <edge id=":0/14_11" function="internal">
        <lane id=":0/14_11_0" index="0" speed="13.90" length="50" shape="31.65,1425.25 30.82,1426.49 30.00,1426.90"/>
    </edge>
    <edge id=":0/14_18" function="internal">
        <lane id=":0/14_18_0" index="0" speed="13.90" length="50" shape="29.95,1430.11 28.05,1431.25 25.25,1431.65"/>
    </edge>
    <edge id=":0/14_19" function="internal">
        <lane id=":0/14_19_0" index="0" speed="13.90" length="50" shape="30.00,1426.90 29.18,1426.49 28.35,1425.25"/>
    </edge>
    <edge id=":0/14_12" function="internal">
        <lane id=":0/14_12_0" index="0" speed="13.90" length="50" shape="25.25,1428.35 26.61,1428.16 27.57,1427.57 28.16,1426.61 28.35,1425.25"/>
    </edge>
    <edge id=":0/14_13" function="internal">
        <lane id=":0/14_13_0" index="0" speed="13.90" length="50" shape="25.25,1428.35 34.75,1428.35"/>
    </edge>
    <edge id=":0/14_14" function="internal">
        <lane id=":0/14_14_0" index="0" speed="13.90" length="50" shape="25.25,1428.35 28.05,1428.75 30.05,1429.95 31.25,1431.95 31.65,1434.75"/>
    </edge>
    <edge id=":0/14_15" function="internal">
        <lane id=":0/14_15_0" index="0" speed="13.90" length="50" shape="25.25,1428.35 26.49,1429.18 26.90,1430.00 26.49,1430.83 25.25,1431.65"/>
    </edge>
    <edge id=":0/15_0" function="internal">
        <lane id=":0/15_0_0" index="0" speed="13.90" length="50" shape="28.35,1534.75 28.16,1533.39 27.58,1532.43 26.61,1531.84 25.25,1531.65"/>
    </edge>
    <edge id=":0/15_1" function="internal">
        <lane id=":0/15_1_0" index="0" speed="13.90" length="50" shape="28.35,1534.75 28.35,1525.25"/>
    </edge>
    <edge id=":0/15_2" function="internal">
        <lane id=":0/15_2_0" index="0" speed="13.90" length="50" shape="28.35,1534.75 28.75,1531.95 29.95,1529.95 30.05,1529.89"/>
    </edge>
    <edge id=":0/15_3" function="internal">
        <lane id=":0/15_3_0" index="0" speed="13.90" length="50" shape="28.35,1534.75 29.17,1533.51 30.00,1533.10"/>
    </edge>
    <edge id=":0/15_16" function="internal">
        <lane id=":0/15_16_0" index="0" speed="13.90" length="50" shape="30.05,1529.89 31.95,1528.75 34.75,1528.35"/>
    </edge>
    <edge id=":0/15_17" function="internal">
        <lane id=":0/15_17_0" index="0" speed="13.90" length="50" shape="30.00,1533.10 30.82,1533.51 31.65,1534.75"/>
    </edge>
    <edge id=":0/15_4" function="internal">
        <lane id=":0/15_4_0" index="0" speed="13.90" length="50" shape="34.75,1531.65 33.39,1531.84 32.42,1532.43 31.84,1533.39 31.65,1534.75"/>
    </edge>
    <edge id=":0/15_5" function="internal">
        <lane id=":0/15_5_0" index="0" speed="13.90" length="50" shape="34.75,1531.65 25.25,1531.65"/>
    </edge>
    <edge id=":0/15_6" function="internal">
        <lane id=":0/15_6_0" index="0" speed="13.90" length="50" shape="34.75,1531.65 31.95,1531.25 29.95,1530.05 28.75,1528.05 28.35,1525.25"/>
    </edge>
    <edge id=":0/15_7" function="internal">
        <lane id=":0/15_7_0" index="0" speed="13.90" length="50" shape="34.75,1531.65 33.51,1530.82 33.10,1530.00 33.51,1529.17 34.75,1528.35"/>
    </edge>
    <edge id=":0/15_8" function="internal">
        <lane id=":0/15_8_0" index="0" speed="13.90" length="50" shape="31.65,1525.25 31.84,1526.61 32.42,1527.57 33.39,1528.16 34.75,1528.35"/>
    </edge>
    <edge id=":0/15_9" function="internal">
        <lane id=":0/15_9_0" index="0" speed="13.90" length="50" shape="31.65,1525.25 31.65,1534.75"/>
    </edge>
    <edge id=":0/15_10" function="internal">
        <lane id=":0/15_10_0" index="0" speed="13.90" length="50" shape="31.65,1525.25 31.25,1528.05 30.05,1530.05 29.95,1530.11"/>
    </edge>
    <edge id=":0/15_11" function="internal">
        <lane id=":0/15_11_0" index="0" speed="13.90" length="50" shape="31.65,1525.25 30.82,1526.49 30.00,1526.90"/>
    </edge>
    <edge id=":0/15_18" function="internal">
        <lane id=":0/15_18_0" index="0" speed="13.90" length="50" shape="29.95,1530.11 28.05,1531.25 25.25,1531.65"/>
    </edge>
    <edge id=":0/15_19" function="internal">
        <lane id=":0/15_19_0" index="0" speed="13.90" length="50" shape="30.00,1526.90 29.18,1526.49 28.35,1525.25"/>
    </edge>
    <edge id=":0/15_12" function="internal">
        <lane id=":0/15_12_0" index="0" speed="13.90" length="50" shape="25.25,1528.35 26.61,1528.16 27.57,1527.57 28.16,1526.61 28.35,1525.25"/>
    </edge>
    <edge id=":0/15_13" function="internal">
        <lane id=":0/15_13_0" index="0" speed="13.90" length="50" shape="25.25,1528.35 34.75,1528.35"/>
    </edge>
    <edge id=":0/15_14" function="internal">