<?xml version="1.0" encoding="UTF-8"?>

<!-- generated on Sun Feb  5 11:08:16 2017 by SUMO netconvert Version 0.27.1
<?xml version="1.0" encoding="UTF-8"?>

<configuration xmlns:xsi="http://www.w3.org/2001/XMLSchema-instance" xsi:noNamespaceSchemaLocation="http://sumo.dlr.de/xsd/netconvertConfiguration.xsd">

    <input>
        <type-files value="netconvert.osm.types.xml"/>
        <osm-files value="../osm/madrid_las_tablas.osm"/>
    </input>

    <output>
        <output-file value="madrid_las_tablas.net.xml"/>
        <plain-output-prefix value="madrid_las_tablas"/>
        <output.street-names value="true"/>
        <output.original-names value="true"/>
    </output>

    <projection>
        <proj.utm value="true"/>
        <proj.plain-geo value="true"/>
    </projection>

    <edge_removal>
        <remove-edges.by-type value="highway.bridleway,highway.cycleway,highway.footway,highway.ford,highway.path,highway.pedestrian,highway.service,highway.stairs,highway.step,highway.steps,highway.track,railway.light_rail,railway.preserved,railway.rail,railway.subway,railway.tram"/>
    </edge_removal>

</configuration>
-->

<tlLogics version="0.27" xmlns:xsi="http://www.w3.org/2001/XMLSchema-instance" xsi:noNamespaceSchemaLocation="http://sumo.dlr.de/xsd/tllogic_file.xsd">
    <tlLogic id="2089433553" type="static" programID="0" offset="0">
        <phase duration="86" state="GGG"/>
        <phase duration="4" state="yyy"/>
    </tlLogic>
    <tlLogic id="2248941013" type="static" programID="0" offset="0">
        <phase duration="86" state="G"/>
        <phase duration="4" state="y"/>
    </tlLogic>
    <tlLogic id="2504882060" type="static" programID="0" offset="0">
        <phase duration="86" state="GG"/>
        <phase duration="4" state="yy"/>
    </tlLogic>
    <tlLogic id="255023279" type="static" programID="0" offset="0">
        <phase duration="86" state="GG"/>
        <phase duration="4" state="yy"/>
    </tlLogic>
    <tlLogic id="255253968" type="static" programID="0" offset="0">
        <phase duration="83" state="G"/>
        <phase duration="7" state="y"/>
    </tlLogic>
    <tlLogic id="255261900" type="static" programID="0" offset="0">
        <phase duration="86" state="G"/>
        <phase duration="4" state="y"/>
    </tlLogic>
    <tlLogic id="255261982" type="static" programID="0" offset="0">
        <phase duration="86" state="GG"/>
        <phase duration="4" state="yy"/>
    </tlLogic>
    <tlLogic id="255265465" type="static" programID="0" offset="0">
        <phase duration="32" state="GGgrrrrGgg"/>
        <phase duration="7" state="yygrrrrygg"/>
        <phase duration="6" state="rrGrrrrrGG"/>
        <phase duration="7" state="rryrrrrryy"/>
        <phase duration="31" state="rrrGGGGrrG"/>
        <phase duration="7" state="rrryyyyrry"/>
    </tlLogic>
    <tlLogic id="256521501" type="static" programID="0" offset="0">
        <phase duration="83" state="GGG"/>
        <phase duration="7" state="yyy"/>
    </tlLogic>
    <tlLogic id="256521542" type="static" programID="0" offset="0">
        <phase duration="83" state="GGG"/>
        <phase duration="7" state="yyy"/>
    </tlLogic>
    <tlLogic id="256521797" type="static" programID="0" offset="0">
        <phase duration="83" state="G"/>
        <phase duration="7" state="y"/>
    </tlLogic>
    <tlLogic id="256523312" type="static" programID="0" offset="0">
        <phase duration="83" state="GGG"/>
        <phase duration="7" state="yyy"/>
    </tlLogic>
    <tlLogic id="256581766" type="static" programID="0" offset="0">
        <phase duration="36" state="rrrGggGGg"/>
        <phase duration="4" state="rrryggyyg"/>
        <phase duration="6" state="rrrrGGrrG"/>
        <phase duration="4" state="rrrryyrry"/>
        <phase duration="36" state="GGGrrrrrr"/>
        <phase duration="4" state="yyyrrrrrr"/>
    </tlLogic>
    <tlLogic id="256581767" type="static" programID="0" offset="0">
        <phase duration="36" state="GGgrrrGgg"/>
        <phase duration="4" state="yygrrrygg"/>
        <phase duration="6" state="rrGrrrrGG"/>
        <phase duration="4" state="rryrrrryy"/>
        <phase duration="36" state="rrrGGGrrr"/>
        <phase duration="4" state="rrryyyrrr"/>
    </tlLogic>
    <tlLogic id="257717216" type="static" programID="0" offset="0">
        <phase duration="38" state="GgGrrr"/>
        <phase duration="7" state="yyyrrr"/>
        <phase duration="38" state="rrGGGG"/>
        <phase duration="7" state="rryyyy"/>
    </tlLogic>
    <tlLogic id="257926450" type="static" programID="0" offset="0">
        <phase duration="32" state="rrrrrrGGggGGGg"/>
        <phase duration="7" state="rrrrrryyggyyyg"/>
        <phase duration="6" state="rrrrrrrrGGrrrG"/>
        <phase duration="7" state="rrrrrrrryyrrry"/>
        <phase duration="31" state="GGGGGGrrrrrrrr"/>
        <phase duration="7" state="yyyyyyrrrrrrrr"/>
    </tlLogic>
    <tlLogic id="257926481" type="static" programID="0" offset="0">
        <phase duration="32" state="GGGgrrrrrGGgg"/>
        <phase duration="7" state="yyygrrrrryygg"/>
        <phase duration="6" state="rrrGrrrrrrrGG"/>
        <phase duration="7" state="rrryrrrrrrryy"/>
        <phase duration="31" state="rrrrGGGGGrrrr"/>
        <phase duration="7" state="rrrryyyyyrrrr"/>
    </tlLogic>
    <tlLogic id="257926746" type="static" programID="0" offset="0">
        <phase duration="36" state="rrrGGGgGGgg"/>
        <phase duration="4" state="rrryyygyygg"/>
        <phase duration="6" state="rrrrrrGrrGG"/>
        <phase duration="4" state="rrrrrryrryy"/>
        <phase duration="36" state="GGgGrrrrrrr"/>
        <phase duration="4" state="yyyyrrrrrrr"/>
    </tlLogic>
    <tlLogic id="260623158" type="static" programID="0" offset="0">
        <phase duration="83" state="GGG"/>
        <phase duration="7" state="yyy"/>
    </tlLogic>
    <tlLogic id="2631422858" type="static" programID="0" offset="0">
        <phase duration="86" state="GgGg"/>
        <phase duration="4" state="yyyy"/>
    </tlLogic>
    <tlLogic id="2631422880" type="static" programID="0" offset="0">
        <phase duration="83" state="GGG"/>
        <phase duration="7" state="yyy"/>
    </tlLogic>
    <tlLogic id="2631422883" type="static" programID="0" offset="0">
        <phase duration="86" state="GGgGGg"/>
        <phase duration="4" state="yyyyyy"/>
    </tlLogic>
    <tlLogic id="265670831" type="static" programID="0" offset="0">
        <phase duration="83" state="G"/>
        <phase duration="7" state="y"/>
    </tlLogic>
    <tlLogic id="265673152" type="static" programID="0" offset="0">
        <phase duration="83" state="GGG"/>
        <phase duration="7" state="yyy"/>
    </tlLogic>
    <tlLogic id="265673153" type="static" programID="0" offset="0">
        <phase duration="83" state="GGG"/>
        <phase duration="7" state="yyy"/>
    </tlLogic>
    <tlLogic id="276741480" type="static" programID="0" offset="0">
        <phase duration="86" state="GgGg"/>
        <phase duration="4" state="yyyy"/>
    </tlLogic>
    <tlLogic id="301640218" type="static" programID="0" offset="0">
        <phase duration="86" state="GGG"/>
        <phase duration="4" state="yyy"/>
    </tlLogic>
    <tlLogic id="301640220" type="static" programID="0" offset="0">
        <phase duration="86" state="GG"/>
        <phase duration="4" state="yy"/>
    </tlLogic>
    <tlLogic id="301640222" type="static" programID="0" offset="0">
        <phase duration="86" state="GG"/>
        <phase duration="4" state="yy"/>
    </tlLogic>
    <tlLogic id="301640224" type="static" programID="0" offset="0">
        <phase duration="86" state="GG"/>
        <phase duration="4" state="yy"/>
    </tlLogic>
    <tlLogic id="301640529" type="static" programID="0" offset="0">
        <phase duration="86" state="GGG"/>
        <phase duration="4" state="yyy"/>
    </tlLogic>
    <tlLogic id="301640530" type="static" programID="0" offset="0">
        <phase duration="86" state="GGG"/>
        <phase duration="4" state="yyy"/>
    </tlLogic>
    <tlLogic id="301641173" type="static" programID="0" offset="0">
        <phase duration="86" state="GGG"/>
        <phase duration="4" state="yyy"/>
    </tlLogic>
    <tlLogic id="301641174" type="static" programID="0" offset="0">
        <phase duration="86" state="GGG"/>
        <phase duration="4" state="yyy"/>
    </tlLogic>
    <tlLogic id="301641367" type="static" programID="0" offset="0">
        <phase duration="83" state="GGG"/>
        <phase duration="7" state="yyy"/>
    </tlLogic>
    <tlLogic id="301641369" type="static" programID="0" offset="0">
        <phase duration="83" state="GGG"/>
        <phase duration="7" state="yyy"/>
    </tlLogic>
    <tlLogic id="301641752" type="static" programID="0" offset="0">
        <phase duration="83" state="GGG"/>
        <phase duration="7" state="yyy"/>
    </tlLogic>
    <tlLogic id="301641754" type="static" programID="0" offset="0">
        <phase duration="83" state="GGGG"/>
        <phase duration="7" state="yyyy"/>
    </tlLogic>
    <tlLogic id="301642757" type="static" programID="0" offset="0">
        <phase duration="83" state="GGG"/>
        <phase duration="7" state="yyy"/>
    </tlLogic>
    <tlLogic id="301642820" type="static" programID="0" offset="0">
        <phase duration="83" state="GGG"/>
        <phase duration="7" state="yyy"/>
    </tlLogic>
    <tlLogic id="302494044" type="static" programID="0" offset="0">
        <phase duration="83" state="G"/>
        <phase duration="7" state="y"/>
    </tlLogic>
    <tlLogic id="302494045" type="static" programID="0" offset="0">
        <phase duration="83" state="G"/>
        <phase duration="7" state="y"/>
    </tlLogic>
    <tlLogic id="302494046" type="static" programID="0" offset="0">
        <phase duration="86" state="GG"/>
        <phase duration="4" state="yy"/>
    </tlLogic>
    <tlLogic id="302494048" type="static" programID="0" offset="0">
        <phase duration="86" state="GG"/>
        <phase duration="4" state="yy"/>
    </tlLogic>
    <tlLogic id="303255716" type="static" programID="0" offset="0">
        <phase duration="86" state="GGG"/>
        <phase duration="4" state="yyy"/>
    </tlLogic>
    <tlLogic id="303255717" type="static" programID="0" offset="0">
        <phase duration="86" state="GG"/>
        <phase duration="4" state="yy"/>
    </tlLogic>
    <tlLogic id="303255718" type="static" programID="0" offset="0">
        <phase duration="86" state="G"/>
        <phase duration="4" state="y"/>
    </tlLogic>
    <tlLogic id="303255719" type="static" programID="0" offset="0">
        <phase duration="86" state="GGG"/>
        <phase duration="4" state="yyy"/>
    </tlLogic>
    <tlLogic id="303255756" type="static" programID="0" offset="0">
        <phase duration="83" state="GGG"/>
        <phase duration="7" state="yyy"/>
    </tlLogic>
    <tlLogic id="303255757" type="static" programID="0" offset="0">
        <phase duration="86" state="GG"/>
        <phase duration="4" state="yy"/>
    </tlLogic>
    <tlLogic id="303255761" type="static" programID="0" offset="0">
        <phase duration="86" state="GG"/>
        <phase duration="4" state="yy"/>
    </tlLogic>
    <tlLogic id="306123126" type="static" programID="0" offset="0">
        <phase duration="83" state="G"/>
        <phase duration="7" state="y"/>
    </tlLogic>
    <tlLogic id="308873172" type="static" programID="0" offset="0">
        <phase duration="83" state="GGG"/>
        <phase duration="7" state="yyy"/>
    </tlLogic>
    <tlLogic id="308873173" type="static" programID="0" offset="0">
        <phase duration="83" state="GGG"/>
        <phase duration="7" state="yyy"/>
    </tlLogic>
    <tlLogic id="308873299" type="static" programID="0" offset="0">
        <phase duration="83" state="GGG"/>
        <phase duration="7" state="yyy"/>
    </tlLogic>
    <tlLogic id="308876789" type="static" programID="0" offset="0">
        <phase duration="83" state="GGG"/>
        <phase duration="7" state="yyy"/>
    </tlLogic>
    <tlLogic id="308877178" type="static" programID="0" offset="0">
        <phase duration="86" state="GGG"/>
        <phase duration="4" state="yyy"/>
    </tlLogic>
    <tlLogic id="310344436" type="static" programID="0" offset="0">
        <phase duration="83" state="GG"/>
        <phase duration="7" state="yy"/>
    </tlLogic>
    <tlLogic id="3330896373" type="static" programID="0" offset="0">
        <phase duration="83" state="GGG"/>
        <phase duration="7" state="yyy"/>
    </tlLogic>
    <tlLogic id="3330896375" type="static" programID="0" offset="0">
        <phase duration="83" state="GGG"/>
        <phase duration="7" state="yyy"/>
    </tlLogic>
    <tlLogic id="352669173" type="static" programID="0" offset="0">
        <phase duration="83" state="GGG"/>
        <phase duration="7" state="yyy"/>
    </tlLogic>
    <tlLogic id="352669214" type="static" programID="0" offset="0">
        <phase duration="83" state="GGG"/>
        <phase duration="7" state="yyy"/>
    </tlLogic>
    <tlLogic id="352734713" type="static" programID="0" offset="0">
        <phase duration="83" state="GGGG"/>
        <phase duration="7" state="yyyy"/>
    </tlLogic>
    <tlLogic id="352750483" type="static" programID="0" offset="0">
        <phase duration="86" state="GGGG"/>
        <phase duration="4" state="yyyy"/>
    </tlLogic>
    <tlLogic id="352750520" type="static" programID="0" offset="0">
        <phase duration="86" state="GGGG"/>
        <phase duration="4" state="yyyy"/>
    </tlLogic>
    <tlLogic id="352755300" type="static" programID="0" offset="0">
        <phase duration="86" state="G"/>
        <phase duration="4" state="y"/>
    </tlLogic>
    <tlLogic id="3631844233" type="static" programID="0" offset="0">
        <phase duration="86" state="GGGG"/>
        <phase duration="4" state="yyyy"/>
    </tlLogic>
    <tlLogic id="3631844234" type="static" programID="0" offset="0">
        <phase duration="83" state="GGG"/>
        <phase duration="7" state="yyy"/>
    </tlLogic>
    <tlLogic id="3631844237" type="static" programID="0" offset="0">
        <phase duration="83" state="GGG"/>
        <phase duration="7" state="yyy"/>
    </tlLogic>
    <tlLogic id="3631844238" type="static" programID="0" offset="0">
        <phase duration="86" state="GGGG"/>
        <phase duration="4" state="yyyy"/>
    </tlLogic>
    <tlLogic id="4234121235" type="static" programID="0" offset="0">
        <phase duration="83" state="GGG"/>
        <phase duration="7" state="yyy"/>
    </tlLogic>
    <tlLogic id="4435266490" type="static" programID="0" offset="0">
        <phase duration="86" state="G"/>
        <phase duration="4" state="y"/>
    </tlLogic>
    <tlLogic id="4435266491" type="static" programID="0" offset="0">
        <phase duration="86" state="G"/>
        <phase duration="4" state="y"/>
    </tlLogic>
    <tlLogic id="4435266497" type="static" programID="0" offset="0">
        <phase duration="86" state="GgGg"/>
        <phase duration="4" state="yyyy"/>
    </tlLogic>
    <tlLogic id="598185624" type="static" programID="0" offset="0">
        <phase duration="86" state="GGG"/>
        <phase duration="4" state="yyy"/>
    </tlLogic>
    <tlLogic id="613548074" type="static" programID="0" offset="0">
        <phase duration="86" state="GGG"/>
        <phase duration="4" state="yyy"/>
    </tlLogic>
    <tlLogic id="613548075" type="static" programID="0" offset="0">
        <phase duration="86" state="GGG"/>
        <phase duration="4" state="yyy"/>
    </tlLogic>

    <connection from="-23785487#6" to="-23785487#5" fromLane="0" toLane="0" tl="257926450" linkIndex="6"/>
    <connection from="-23785487#6" to="-23785487#5" fromLane="1" toLane="1" tl="257926450" linkIndex="7"/>
    <connection from="-23785487#6" to="358227398#0" fromLane="1" toLane="3" tl="257926450" linkIndex="8"/>
    <connection from="-23785487#6" to="23785487#6" fromLane="1" toLane="1" tl="257926450" linkIndex="9"/>
    <connection from="-23785487#7" to="358227397" fromLane="0" toLane="0" tl="257926481" linkIndex="0"/>
    <connection from="-23785487#7" to="-23785487#6" fromLane="0" toLane="0" tl="257926481" linkIndex="1"/>
    <connection from="-23785487#7" to="-23785487#6" fromLane="1" toLane="1" tl="257926481" linkIndex="2"/>
    <connection from="-23785487#7" to="23785487#7" fromLane="1" toLane="1" tl="257926481" linkIndex="3"/>
    <connection from="-23802588#2" to="-23802588#1" fromLane="0" toLane="0" tl="2631422858" linkIndex="2"/>
    <connection from="-23802588#2" to="23802588#2" fromLane="0" toLane="0" tl="2631422858" linkIndex="3"/>
    <connection from="-24228720#2" to="-24228720#1" fromLane="0" toLane="0" tl="276741480" linkIndex="0"/>
    <connection from="-24228720#2" to="24228720#2" fromLane="0" toLane="0" tl="276741480" linkIndex="1"/>
    <connection from="-243040722" to="-243046552#2" fromLane="0" toLane="0" tl="256581767" linkIndex="6"/>
    <connection from="-243040722" to="243040739#0" fromLane="0" toLane="0" tl="256581767" linkIndex="7"/>
    <connection from="-243040722" to="243040722" fromLane="0" toLane="0" tl="256581767" linkIndex="8"/>
    <connection from="-243040723#0" to="243040738#0" fromLane="0" toLane="0" tl="256581766" linkIndex="6"/>
    <connection from="-243040723#0" to="-243040722" fromLane="0" toLane="0" tl="256581766" linkIndex="7"/>
    <connection from="-243040723#0" to="243040723#0" fromLane="0" toLane="0" tl="256581766" linkIndex="8"/>
    <connection from="-243046552#2" to="-243046552#1" fromLane="0" toLane="0" tl="4435266497" linkIndex="2"/>
    <connection from="-243046552#2" to="243046552#2" fromLane="0" toLane="0" tl="4435266497" linkIndex="3"/>
    <connection from="-31983270" to="-23695586#8" fromLane="0" toLane="0" tl="255265465" linkIndex="7"/>
    <connection from="-31983270" to="258244174#0" fromLane="0" toLane="2" tl="255265465" linkIndex="8"/>
    <connection from="-31983270" to="31983270" fromLane="0" toLane="0" tl="255265465" linkIndex="9"/>
    <connection from="-443977183#1" to="-443977183#0" fromLane="0" toLane="0" tl="2631422883" linkIndex="0"/>
    <connection from="-443977183#1" to="-443977183#0" fromLane="1" toLane="1" tl="2631422883" linkIndex="1"/>
    <connection from="-443977183#1" to="443977183#1" fromLane="1" toLane="1" tl="2631422883" linkIndex="2"/>
    <connection from="-443977183#2" to="-23802588#2" fromLane="0" toLane="0" tl="257926746" linkIndex="3"/>
    <connection from="-443977183#2" to="-443977183#1" fromLane="0" toLane="0" tl="257926746" linkIndex="4"/>
    <connection from="-443977183#2" to="-443977183#1" fromLane="1" toLane="1" tl="257926746" linkIndex="5"/>
    <connection from="-443977183#2" to="443977183#2" fromLane="1" toLane="1" tl="257926746" linkIndex="6"/>
    <connection from="215446161#0" to="215446161#1" fromLane="0" toLane="0" tl="2248941013" linkIndex="0"/>
    <connection from="23551877#1" to="23551877#2" fromLane="0" toLane="0" tl="255023279" linkIndex="0"/>
    <connection from="23551877#1" to="23551877#2" fromLane="1" toLane="1" tl="255023279" linkIndex="1"/>
    <connection from="23551877#2" to="23551877#3" fromLane="0" toLane="0" tl="302494048" linkIndex="0"/>
    <connection from="23551877#2" to="23551877#3" fromLane="1" toLane="1" tl="302494048" linkIndex="1"/>
    <connection from="23689372#2" to="23689372#3" fromLane="0" toLane="0" tl="256521797" linkIndex="0"/>
    <connection from="23689372#3" to="23689372#4" fromLane="0" toLane="0" tl="302494045" linkIndex="0"/>
    <connection from="23689372#5" to="23689372#6" fromLane="0" toLane="0" tl="265670831" linkIndex="0"/>
    <connection from="23689561" to="20617535#0" fromLane="0" toLane="0" tl="256523312" linkIndex="0"/>
    <connection from="23689561" to="20617535#0" fromLane="1" toLane="1" tl="256523312" linkIndex="1"/>
    <connection from="23689561" to="20617535#0" fromLane="2" toLane="2" tl="256523312" linkIndex="2"/>
    <connection from="23695586#8" to="258244174#0" fromLane="0" toLane="0" tl="255265465" linkIndex="0"/>
    <connection from="23695586#8" to="31983270" fromLane="0" toLane="0" tl="255265465" linkIndex="1"/>
    <connection from="23695586#8" to="-23695586#8" fromLane="0" toLane="0" tl="255265465" linkIndex="2"/>
    <connection from="23695668#0" to="23695668#1" fromLane="0" toLane="0" tl="3330896373" linkIndex="0"/>
    <connection from="23695668#0" to="23695668#1" fromLane="1" toLane="1" tl="3330896373" linkIndex="1"/>
    <connection from="23695668#0" to="23695668#1" fromLane="2" toLane="2" tl="3330896373" linkIndex="2"/>
    <connection from="23695668#1" to="23695668#2" fromLane="0" toLane="0" tl="256521501" linkIndex="0"/>
    <connection from="23695668#1" to="23695668#2" fromLane="1" toLane="1" tl="256521501" linkIndex="1"/>
    <connection from="23695668#1" to="23695668#2" fromLane="2" toLane="2" tl="256521501" linkIndex="2"/>
    <connection from="23695668#5" to="23695668#6" fromLane="0" toLane="0" tl="265673152" linkIndex="0"/>
    <connection from="23695668#5" to="23695668#6" fromLane="1" toLane="1" tl="265673152" linkIndex="1"/>
    <connection from="23695668#5" to="23695668#6" fromLane="2" toLane="2" tl="265673152" linkIndex="2"/>
    <connection from="23763154#1" to="23785487#7" fromLane="0" toLane="0" tl="257926481" linkIndex="4"/>
    <connection from="23763154#1" to="358227397" fromLane="0" toLane="0" tl="257926481" linkIndex="5"/>
    <connection from="23763154#1" to="358227397" fromLane="1" toLane="1" tl="257926481" linkIndex="6"/>
    <connection from="23763154#1" to="358227397" fromLane="2" toLane="2" tl="257926481" linkIndex="7"/>
    <connection from="23763154#1" to="-23785487#6" fromLane="3" toLane="1" tl="257926481" linkIndex="8"/>
    <connection from="23763167#0" to="23763167#1" fromLane="0" toLane="0" tl="613548074" linkIndex="0"/>
    <connection from="23763167#0" to="23763167#1" fromLane="1" toLane="1" tl="613548074" linkIndex="1"/>
    <connection from="23763167#0" to="23763167#1" fromLane="2" toLane="2" tl="613548074" linkIndex="2"/>
    <connection from="23785475#1" to="31519662#3" fromLane="0" toLane="0" tl="257717216" linkIndex="0"/>
    <connection from="23785475#1" to="-23785475#1" fromLane="0" toLane="0" tl="257717216" linkIndex="1"/>
    <connection from="23785487#5" to="358227398#0" fromLane="0" toLane="0" tl="257926450" linkIndex="10"/>
    <connection from="23785487#5" to="23785487#6" fromLane="0" toLane="0" tl="257926450" linkIndex="11"/>
    <connection from="23785487#5" to="23785487#6" fromLane="1" toLane="1" tl="257926450" linkIndex="12"/>
    <connection from="23785487#5" to="-23785487#5" fromLane="1" toLane="1" tl="257926450" linkIndex="13"/>
    <connection from="23785487#6" to="23785487#7" fromLane="0" toLane="0" tl="257926481" linkIndex="9"/>
    <connection from="23785487#6" to="23785487#7" fromLane="1" toLane="1" tl="257926481" linkIndex="10"/>
    <connection from="23785487#6" to="358227397" fromLane="1" toLane="2" tl="257926481" linkIndex="11"/>
    <connection from="23785487#6" to="-23785487#6" fromLane="1" toLane="1" tl="257926481" linkIndex="12"/>
    <connection from="23802588#1" to="23802588#2" fromLane="0" toLane="0" tl="2631422858" linkIndex="0"/>
    <connection from="23802588#1" to="-23802588#1" fromLane="0" toLane="0" tl="2631422858" linkIndex="1"/>
    <connection from="23802588#2" to="-443977183#1" fromLane="0" toLane="0" tl="257926746" linkIndex="0"/>
    <connection from="23802588#2" to="443977183#2" fromLane="0" toLane="1" tl="257926746" linkIndex="1"/>
    <connection from="23802588#2" to="-23802588#2" fromLane="0" toLane="0" tl="257926746" linkIndex="2"/>
    <connection from="24031615#1" to="24031615#2" fromLane="0" toLane="0" tl="260623158" linkIndex="0"/>
    <connection from="24031615#1" to="24031615#2" fromLane="1" toLane="1" tl="260623158" linkIndex="1"/>
    <connection from="24031615#1" to="24031615#2" fromLane="2" toLane="2" tl="260623158" linkIndex="2"/>
    <connection from="24031615#3" to="24031615#4" fromLane="0" toLane="0" tl="352669214" linkIndex="0"/>
    <connection from="24031615#3" to="24031615#4" fromLane="1" toLane="1" tl="352669214" linkIndex="1"/>
    <connection from="24031615#3" to="24031615#4" fromLane="2" toLane="2" tl="352669214" linkIndex="2"/>
    <connection from="24031616#0" to="24031616#1" fromLane="0" toLane="0" tl="2504882060" linkIndex="0"/>
    <connection from="24031616#0" to="24031616#1" fromLane="1" toLane="1" tl="2504882060" linkIndex="1"/>
    <connection from="24228720#1" to="24228720#2" fromLane="0" toLane="0" tl="276741480" linkIndex="2"/>
    <connection from="24228720#1" to="-24228720#1" fromLane="0" toLane="0" tl="276741480" linkIndex="3"/>
    <connection from="24252393#0" to="24252393#1" fromLane="0" toLane="0" tl="306123126" linkIndex="0"/>
    <connection from="24252423#1" to="24252423#2" fromLane="0" toLane="0" tl="303255717" linkIndex="0"/>
    <connection from="24252423#1" to="24252423#2" fromLane="1" toLane="1" tl="303255717" linkIndex="1"/>
    <connection from="24252423#4" to="-243046552#2" fromLane="0" toLane="0" tl="256581767" linkIndex="3"/>
    <connection from="24252423#4" to="243040739#0" fromLane="0" toLane="0" tl="256581767" linkIndex="4"/>
    <connection from="24252423#4" to="243040722" fromLane="1" toLane="0" tl="256581767" linkIndex="5"/>
    <connection from="243040718#0" to="243040718#1" fromLane="0" toLane="0" tl="301641173" linkIndex="0"/>
    <connection from="243040718#0" to="243040718#1" fromLane="1" toLane="1" tl="301641173" linkIndex="1"/>
    <connection from="243040718#0" to="243040718#1" fromLane="2" toLane="2" tl="301641173" linkIndex="2"/>
    <connection from="243040718#4" to="243040718#5" fromLane="0" toLane="0" tl="301640530" linkIndex="0"/>
    <connection from="243040718#4" to="243040718#5" fromLane="1" toLane="1" tl="301640530" linkIndex="1"/>
    <connection from="243040718#4" to="243040718#5" fromLane="2" toLane="2" tl="301640530" linkIndex="2"/>
    <connection from="243040720#0" to="243040720#1" fromLane="0" toLane="0" tl="301641174" linkIndex="0"/>
    <connection from="243040720#0" to="243040720#1" fromLane="1" toLane="1" tl="301641174" linkIndex="1"/>
    <connection from="243040720#0" to="243040720#1" fromLane="2" toLane="2" tl="301641174" linkIndex="2"/>
    <connection from="243040722" to="243040723#0" fromLane="0" toLane="0" tl="256581766" linkIndex="3"/>
    <connection from="243040722" to="243040738#0" fromLane="0" toLane="1" tl="256581766" linkIndex="4"/>
    <connection from="243040722" to="-243040722" fromLane="0" toLane="0" tl="256581766" linkIndex="5"/>
    <connection from="243040724#0" to="243040724#1" fromLane="0" toLane="0" tl="2631422880" linkIndex="0"/>
    <connection from="243040724#0" to="243040724#1" fromLane="1" toLane="1" tl="2631422880" linkIndex="1"/>
    <connection from="243040724#0" to="243040724#1" fromLane="2" toLane="2" tl="2631422880" linkIndex="2"/>
    <connection from="243040735#0" to="243040735#1" fromLane="0" toLane="0" tl="352734713" linkIndex="0"/>
    <connection from="243040735#0" to="243040735#1" fromLane="1" toLane="1" tl="352734713" linkIndex="1"/>
    <connection from="243040735#0" to="243040735#1" fromLane="2" toLane="2" tl="352734713" linkIndex="2"/>
    <connection from="243040735#0" to="243040735#1" fromLane="3" toLane="3" tl="352734713" linkIndex="3"/>
    <connection from="243040738#0" to="243040738#1" fromLane="0" toLane="0" tl="303255757" linkIndex="0"/>
    <connection from="243040738#0" to="243040738#1" fromLane="1" toLane="1" tl="303255757" linkIndex="1"/>
    <connection from="243040739#0" to="243040739#1" fromLane="0" toLane="0" tl="4435266490" linkIndex="0"/>
    <connection from="243046552#1" to="243046552#2" fromLane="0" toLane="0" tl="4435266497" linkIndex="0"/>
    <connection from="243046552#1" to="-243046552#1" fromLane="0" toLane="0" tl="4435266497" linkIndex="1"/>
    <connection from="243046552#2" to="243040739#0" fromLane="0" toLane="0" tl="256581767" linkIndex="0"/>
    <connection from="243046552#2" to="243040722" fromLane="0" toLane="0" tl="256581767" linkIndex="1"/>
    <connection from="243046552#2" to="-243046552#2" fromLane="0" toLane="0" tl="256581767" linkIndex="2"/>
    <connection from="261056935#0" to="261056935#1" fromLane="0" toLane="0" tl="301640529" linkIndex="0"/>
    <connection from="261056935#0" to="261056935#1" fromLane="1" toLane="1" tl="301640529" linkIndex="1"/>
    <connection from="261056935#0" to="261056935#1" fromLane="2" toLane="2" tl="301640529" linkIndex="2"/>
    <connection from="261926530#1" to="261926530#2" fromLane="0" toLane="0" tl="302494046" linkIndex="0"/>
    <connection from="261926530#1" to="261926530#2" fromLane="1" toLane="1" tl="302494046" linkIndex="1"/>
    <connection from="261926530#2" to="261926530#3" fromLane="0" toLane="0" tl="255261982" linkIndex="0"/>
    <connection from="261926530#2" to="261926530#3" fromLane="1" toLane="1" tl="255261982" linkIndex="1"/>
    <connection from="28119760#2" to="28119760#3" fromLane="0" toLane="0" tl="2089433553" linkIndex="0"/>
    <connection from="28119760#2" to="28119760#3" fromLane="1" toLane="1" tl="2089433553" linkIndex="1"/>
    <connection from="28119760#2" to="28119760#3" fromLane="2" toLane="2" tl="2089433553" linkIndex="2"/>
    <connection from="28119760#6" to="28119760#7" fromLane="0" toLane="0" tl="308877178" linkIndex="0"/>
    <connection from="28119760#6" to="28119760#7" fromLane="1" toLane="1" tl="308877178" linkIndex="1"/>
    <connection from="28119760#6" to="28119760#7" fromLane="2" toLane="2" tl="308877178" linkIndex="2"/>
    <connection from="28120211#0" to="28120211#1" fromLane="0" toLane="0" tl="308876789" linkIndex="0"/>
    <connection from="28120211#0" to="28120211#1" fromLane="1" toLane="1" tl="308876789" linkIndex="1"/>
    <connection from="28120211#0" to="28120211#1" fromLane="2" toLane="2" tl="308876789" linkIndex="2"/>