<?xml version="1.0" encoding="UTF-8"?>

<configuration xmlns:xsi="http://www.w3.org/2001/XMLSchema-instance" xsi:noNamespaceSchemaLocation="http://sumo.dlr.de/xsd/netgenerateConfiguration.xsd">

    <grid_network>
        <grid value="true"/>
        <grid.number value="16"/>
        <grid.length value="100.0"/>
        <grid.attach-length value="30"/>
    </grid_network>

    <output>
        <output-file		value="grid16_M_noTWM_reference_2lanes_fulltraffic.net.xml"/>
        <plain-output-prefix	value="grid16_M_noTWM_reference_2lanes_fulltraffic"/>
    </output>

    <building_defaults>
        <default.lanenumber	value="2"/>
        <default.speed		value="13.9"/>
        <default.priority	value="-1"/>
    </building_defaults>

    <report>
        <verbose value="true"/>
    </report>

</configuration>
