<?xml version="1.0" encoding="UTF-8"?>

<!-- generated on Thu Mar 14 00:16:35 2019 by SUMO netgenerate Version 0.27.1
<?xml version="1.0" encoding="UTF-8"?>

<configuration xmlns:xsi="http://www.w3.org/2001/XMLSchema-instance" xsi:noNamespaceSchemaLocation="http://sumo.dlr.de/xsd/netgenerateConfiguration.xsd">

    <grid_network>
        <grid value="true"/>
        <grid.number value="16"/>
        <grid.length value="100"/>
        <grid.attach-length value="30"/>
    </grid_network>

    <output>
        <output-file value="grid16_M_noTWM_reference_2lanes_fulltraffic.net.xml"/>
        <plain-output-prefix value="grid16_M_noTWM_reference_2lanes_fulltraffic"/>
    </output>

    <building_defaults>
        <default.lanenumber value="2"/>
        <default.speed value="13.9"/>
        <default.priority value="-1"/>
    </building_defaults>

    <report>
        <verbose value="true"/>
    </report>

</configuration>
-->

<net version="0.27" xmlns:xsi="http://www.w3.org/2001/XMLSchema-instance" xsi:noNamespaceSchemaLocation="http://sumo.dlr.de/xsd/net_file.xsd">

    <location netOffset="0.00,0.00" convBoundary="0.00,0.00,1560.00,1560.00" origBoundary="0.00,0.00,1560.00,1560.00" projParameter="!"/>

    <edge id=":0/0_0" function="internal">
        <lane id=":0/0_0_0" index="0" speed="13.90" length="50" shape="25.05,38.05 24.86,36.69 24.28,35.73 23.31,35.14 21.95,34.95"/>
    </edge>
    <edge id=":0/0_1" function="internal">
        <lane id=":0/0_1_0" index="0" speed="13.90" length="50" shape="25.05,38.05 25.05,21.95"/>
        <lane id=":0/0_1_1" index="1" speed="13.90" length="50" shape="28.35,38.05 28.35,21.95"/>
    </edge>
    <edge id=":0/0_3" function="internal">
        <lane id=":0/0_3_0" index="0" speed="13.90" length="50" shape="28.35,38.05 28.96,33.81 30.05,31.98"/>
    </edge>
    <edge id=":0/0_4" function="internal">
        <lane id=":0/0_4_0" index="0" speed="13.90" length="50" shape="28.35,38.05 29.17,36.81 30.00,36.40"/>
    </edge>
    <edge id=":0/0_20" function="internal">
        <lane id=":0/0_20_0" index="0" speed="13.90" length="50" shape="30.05,31.98 30.78,30.78 33.81,28.96 38.05,28.35"/>
    </edge>
    <edge id=":0/0_21" function="internal">
        <lane id=":0/0_21_0" index="0" speed="13.90" length="50" shape="30.00,36.40 30.82,36.81 31.65,38.05"/>
    </edge>
    <edge id=":0/0_5" function="internal">
        <lane id=":0/0_5_0" index="0" speed="13.90" length="50" shape="38.05,34.95 36.69,35.14 35.73,35.73 35.14,36.69 34.95,38.05"/>
    </edge>
    <edge id=":0/0_6" function="internal">
        <lane id=":0/0_6_0" index="0" speed="13.90" length="50" shape="38.05,34.95 21.95,34.95"/>
        <lane id=":0/0_6_1" index="1" speed="13.90" length="50" shape="38.05,31.65 21.95,31.65"/>
    </edge>
    <edge id=":0/0_8" function="internal">
        <lane id=":0/0_8_0" index="0" speed="13.90" length="50" shape="38.05,31.65 33.81,31.04 30.78,29.22 28.96,26.19 28.35,21.95"/>
    </edge>
    <edge id=":0/0_9" function="internal">
        <lane id=":0/0_9_0" index="0" speed="13.90" length="50" shape="38.05,31.65 36.81,30.82 36.40,30.00 36.81,29.18 38.05,28.35"/>
    </edge>
    <edge id=":0/0_10" function="internal">
        <lane id=":0/0_10_0" index="0" speed="13.90" length="50" shape="34.95,21.95 35.14,23.31 35.73,24.27 36.69,24.86 38.05,25.05"/>
    </edge>
    <edge id=":0/0_11" function="internal">
        <lane id=":0/0_11_0" index="0" speed="13.90" length="50" shape="34.95,21.95 34.95,38.05"/>
        <lane id=":0/0_11_1" index="1" speed="13.90" length="50" shape="31.65,21.95 31.65,38.05"/>
    </edge>
    <edge id=":0/0_13" function="internal">
        <lane id=":0/0_13_0" index="0" speed="13.90" length="50" shape="31.65,21.95 31.04,26.19 29.95,28.02"/>
    </edge>
    <edge id=":0/0_14" function="internal">
        <lane id=":0/0_14_0" index="0" speed="13.90" length="50" shape="31.65,21.95 30.82,23.19 30.00,23.60"/>
    </edge>
    <edge id=":0/0_22" function="internal">
        <lane id=":0/0_22_0" index="0" speed="13.90" length="50" shape="29.95,28.02 29.22,29.23 26.19,31.04 21.95,31.65"/>
    </edge>
    <edge id=":0/0_23" function="internal">
        <lane id=":0/0_23_0" index="0" speed="13.90" length="50" shape="30.00,23.60 29.18,23.19 28.35,21.95"/>
    </edge>
    <edge id=":0/0_15" function="internal">
        <lane id=":0/0_15_0" index="0" speed="13.90" length="50" shape="21.95,25.05 23.31,24.86 24.27,24.28 24.86,23.31 25.05,21.95"/>
    </edge>
    <edge id=":0/0_16" function="internal">
        <lane id=":0/0_16_0" index="0" speed="13.90" length="50" shape="21.95,25.05 38.05,25.05"/>
        <lane id=":0/0_16_1" index="1" speed="13.90" length="50" shape="21.95,28.35 38.05,28.35"/>
    </edge>
    <edge id=":0/0_18" function="internal">
        <lane id=":0/0_18_0" index="0" speed="13.90" length="50" shape="21.95,28.35 26.19,28.96 29.23,30.78 31.04,33.81 31.65,38.05"/>
    </edge>
    <edge id=":0/0_19" function="internal">
        <lane id=":0/0_19_0" index="0" speed="13.90" length="50" shape="21.95,28.35 23.19,29.17 23.60,30.00 23.19,30.82 21.95,31.65"/>
    </edge>
    <edge id=":0/1_0" function="internal">
        <lane id=":0/1_0_0" index="0" speed="13.90" length="50" shape="25.05,138.05 24.86,136.69 24.28,135.72 23.31,135.14 21.95,134.95"/>
    </edge>
    <edge id=":0/1_1" function="internal">
        <lane id=":0/1_1_0" index="0" speed="13.90" length="50" shape="25.05,138.05 25.05,121.95"/>
        <lane id=":0/1_1_1" index="1" speed="13.90" length="50" shape="28.35,138.05 28.35,121.95"/>
    </edge>
    <edge id=":0/1_3" function="internal">
        <lane id=":0/1_3_0" index="0" speed="13.90" length="50" shape="28.35,138.05 28.96,133.81 30.05,131.98"/>
    </edge>
    <edge id=":0/1_4" function="internal">
        <lane id=":0/1_4_0" index="0" speed="13.90" length="50" shape="28.35,138.05 29.17,136.81 30.00,136.40"/>
    </edge>
    <edge id=":0/1_20" function="internal">
        <lane id=":0/1_20_0" index="0" speed="13.90" length="50" shape="30.05,131.98 30.78,130.78 33.81,128.96 38.05,128.35"/>
    </edge>
    <edge id=":0/1_21" function="internal">
        <lane id=":0/1_21_0" index="0" speed="13.90" length="50" shape="30.00,136.40 30.82,136.81 31.65,138.05"/>
    </edge>
    <edge id=":0/1_5" function="internal">
        <lane id=":0/1_5_0" index="0" speed="13.90" length="50" shape="38.05,134.95 36.69,135.14 35.73,135.72 35.14,136.69 34.95,138.05"/>
    </edge>
    <edge id=":0/1_6" function="internal">
        <lane id=":0/1_6_0" index="0" speed="13.90" length="50" shape="38.05,134.95 21.95,134.95"/>
        <lane id=":0/1_6_1" index="1" speed="13.90" length="50" shape="38.05,131.65 21.95,131.65"/>
    </edge>
    <edge id=":0/1_8" function="internal">
        <lane id=":0/1_8_0" index="0" speed="13.90" length="50" shape="38.05,131.65 33.81,131.04 30.78,129.23 28.96,126.19 28.35,121.95"/>
    </edge>
    <edge id=":0/1_9" function="internal">
        <lane id=":0/1_9_0" index="0" speed="13.90" length="50" shape="38.05,131.65 36.81,130.83 36.40,130.00 36.81,129.17 38.05,128.35"/>
    </edge>
    <edge id=":0/1_10" function="internal">
        <lane id=":0/1_10_0" index="0" speed="13.90" length="50" shape="34.95,121.95 35.14,123.31 35.73,124.28 36.69,124.86 38.05,125.05"/>
    </edge>
    <edge id=":0/1_11" function="internal">
        <lane id=":0/1_11_0" index="0" speed="13.90" length="50" shape="34.95,121.95 34.95,138.05"/>
        <lane id=":0/1_11_1" index="1" speed="13.90" length="50" shape="31.65,121.95 31.65,138.05"/>
    </edge>
    <edge id=":0/1_13" function="internal">
        <lane id=":0/1_13_0" index="0" speed="13.90" length="50" shape="31.65,121.95 31.04,126.19 29.95,128.02"/>
    </edge>
    <edge id=":0/1_14" function="internal">
        <lane id=":0/1_14_0" index="0" speed="13.90" length="50" shape="31.65,121.95 30.82,123.19 30.00,123.60"/>
    </edge>
    <edge id=":0/1_22" function="internal">
        <lane id=":0/1_22_0" index="0" speed="13.90" length="50" shape="29.95,128.02 29.22,129.22 26.19,131.04 21.95,131.65"/>
    </edge>
    <edge id=":0/1_23" function="internal">
        <lane id=":0/1_23_0" index="0" speed="13.90" length="50" shape="30.00,123.60 29.18,123.19 28.35,121.95"/>
    </edge>
    <edge id=":0/1_15" function="internal">
        <lane id=":0/1_15_0" index="0" speed="13.90" length="50" shape="21.95,125.05 23.31,124.86 24.27,124.28 24.86,123.31 25.05,121.95"/>
    </edge>
    <edge id=":0/1_16" function="internal">
        <lane id=":0/1_16_0" index="0" speed="13.90" length="50" shape="21.95,125.05 38.05,125.05"/>
        <lane id=":0/1_16_1" index="1" speed="13.90" length="50" shape="21.95,128.35 38.05,128.35"/>
    </edge>
    <edge id=":0/1_18" function="internal">
        <lane id=":0/1_18_0" index="0" speed="13.90" length="50" shape="21.95,128.35 26.19,128.96 29.23,130.77 31.04,133.81 31.65,138.05"/>
    </edge>
    <edge id=":0/1_19" function="internal">
        <lane id=":0/1_19_0" index="0" speed="13.90" length="50" shape="21.95,128.35 23.19,129.17 23.60,130.00 23.19,130.83 21.95,131.65"/>
    </edge>
    <edge id=":0/10_0" function="internal">
        <lane id=":0/10_0_0" index="0" speed="13.90" length="50" shape="25.05,1038.05 24.86,1036.69 24.28,1035.72 23.31,1035.14 21.95,1034.95"/>
    </edge>
    <edge id=":0/10_1" function="internal">
        <lane id=":0/10_1_0" index="0" speed="13.90" length="50" shape="25.05,1038.05 25.05,1021.95"/>
        <lane id=":0/10_1_1" index="1" speed="13.90" length="50" shape="28.35,1038.05 28.35,1021.95"/>
    </edge>
    <edge id=":0/10_3" function="internal">
        <lane id=":0/10_3_0" index="0" speed="13.90" length="50" shape="28.35,1038.05 28.96,1033.81 30.05,1031.98"/>
    </edge>
    <edge id=":0/10_4" function="internal">
        <lane id=":0/10_4_0" index="0" speed="13.90" length="50" shape="28.35,1038.05 29.17,1036.81 30.00,1036.40"/>
    </edge>
    <edge id=":0/10_20" function="internal">
        <lane id=":0/10_20_0" index="0" speed="13.90" length="50" shape="30.05,1031.98 30.78,1030.78 33.81,1028.96 38.05,1028.35"/>
    </edge>
    <edge id=":0/10_21" function="internal">
        <lane id=":0/10_21_0" index="0" speed="13.90" length="50" shape="30.00,1036.40 30.82,1036.81 31.65,1038.05"/>
    </edge>
    <edge id=":0/10_5" function="internal">
        <lane id=":0/10_5_0" index="0" speed="13.90" length="50" shape="38.05,1034.95 36.69,1035.14 35.73,1035.73 35.14,1036.69 34.95,1038.05"/>
    </edge>
    <edge id=":0/10_6" function="internal">
        <lane id=":0/10_6_0" index="0" speed="13.90" length="50" shape="38.05,1034.95 21.95,1034.95"/>
        <lane id=":0/10_6_1" index="1" speed="13.90" length="50" shape="38.05,1031.65 21.95,1031.65"/>
    </edge>
    <edge id=":0/10_8" function="internal">
        <lane id=":0/10_8_0" index="0" speed="13.90" length="50" shape="38.05,1031.65 33.81,1031.04 30.78,1029.23 28.96,1026.19 28.35,1021.95"/>
    </edge>
    <edge id=":0/10_9" function="internal">
        <lane id=":0/10_9_0" index="0" speed="13.90" length="50" shape="38.05,1031.65 36.81,1030.83 36.40,1030.00 36.81,1029.17 38.05,1028.35"/>
    </edge>
    <edge id=":0/10_10" function="internal">
        <lane id=":0/10_10_0" index="0" speed="13.90" length="50" shape="34.95,1021.95 35.14,1023.31 35.73,1024.27 36.69,1024.86 38.05,1025.05"/>
    </edge>
    <edge id=":0/10_11" function="internal">
        <lane id=":0/10_11_0" index="0" speed="13.90" length="50" shape="34.95,1021.95 34.95,1038.05"/>
        <lane id=":0/10_11_1" index="1" speed="13.90" length="50" shape="31.65,1021.95 31.65,1038.05"/>
    </edge>
    <edge id=":0/10_13" function="internal">
        <lane id=":0/10_13_0" index="0" speed="13.90" length="50" shape="31.65,1021.95 31.04,1026.19 29.95,1028.02"/>
    </edge>
    <edge id=":0/10_14" function="internal">
        <lane id=":0/10_14_0" index="0" speed="13.90" length="50" shape="31.65,1021.95 30.82,1023.19 30.00,1023.60"/>
    </edge>
    <edge id=":0/10_22" function="internal">
        <lane id=":0/10_22_0" index="0" speed="13.90" length="50" shape="29.95,1028.02 29.22,1029.22 26.19,1031.04 21.95,1031.65"/>
    </edge>
    <edge id=":0/10_23" function="internal">
        <lane id=":0/10_23_0" index="0" speed="13.90" length="50" shape="30.00,1023.60 29.18,1023.19 28.35,1021.95"/>
    </edge>
    <edge id=":0/10_15" function="internal">
        <lane id=":0/10_15_0" index="0" speed="13.90" length="50" shape="21.95,1025.05 23.31,1024.86 24.27,1024.27 24.86,1023.31 25.05,1021.95"/>
    </edge>
    <edge id=":0/10_16" function="internal">
        <lane id=":0/10_16_0" index="0" speed="13.90" length="50" shape="21.95,1025.05 38.05,1025.05"/>
        <lane id=":0/10_16_1" index="1" speed="13.90" length="50" shape="21.95,1028.35 38.05,1028.35"/>
    </edge>
    <edge id=":0/10_18" function="internal">
        <lane id=":0/10_18_0" index="0" speed="13.90" length="50" shape="21.95,1028.35 26.19,1028.96 29.23,1030.77 31.04,1033.81 31.65,1038.05"/>
    </edge>
    <edge id=":0/10_19" function="internal">
        <lane id=":0/10_19_0" index="0" speed="13.90" length="50" shape="21.95,1028.35 23.19,1029.17 23.60,1030.00 23.19,1030.83 21.95,1031.65"/>
    </edge>
    <edge id=":0/11_0" function="internal">
        <lane id=":0/11_0_0" index="0" speed="13.90" length="50" shape="25.05,1138.05 24.86,1136.69 24.28,1135.72 23.31,1135.14 21.95,1134.95"/>
    </edge>
    <edge id=":0/11_1" function="internal">
        <lane id=":0/11_1_0" index="0" speed="13.90" length="50" shape="25.05,1138.05 25.05,1121.95"/>
        <lane id=":0/11_1_1" index="1" speed="13.90" length="50" shape="28.35,1138.05 28.35,1121.95"/>
    </edge>
    <edge id=":0/11_3" function="internal">
        <lane id=":0/11_3_0" index="0" speed="13.90" length="50" shape="28.35,1138.05 28.96,1133.81 30.05,1131.98"/>
    </edge>
    <edge id=":0/11_4" function="internal">
        <lane id=":0/11_4_0" index="0" speed="13.90" length="50" shape="28.35,1138.05 29.17,1136.81 30.00,1136.40"/>
    </edge>
    <edge id=":0/11_20" function="internal">
        <lane id=":0/11_20_0" index="0" speed="13.90" length="50" shape="30.05,1131.98 30.78,1130.78 33.81,1128.96 38.05,1128.35"/>
    </edge>
    <edge id=":0/11_21" function="internal">
        <lane id=":0/11_21_0" index="0" speed="13.90" length="50" shape="30.00,1136.40 30.82,1136.81 31.65,1138.05"/>
    </edge>
    <edge id=":0/11_5" function="internal">
        <lane id=":0/11_5_0" index="0" speed="13.90" length="50" shape="38.05,1134.95 36.69,1135.14 35.73,1135.73 35.14,1136.69 34.95,1138.05"/>
    </edge>
    <edge id=":0/11_6" function="internal">
        <lane id=":0/11_6_0" index="0" speed="13.90" length="50" shape="38.05,1134.95 21.95,1134.95"/>
        <lane id=":0/11_6_1" index="1" speed="13.90" length="50" shape="38.05,1131.65 21.95,1131.65"/>
    </edge>
    <edge id=":0/11_8" function="internal">
        <lane id=":0/11_8_0" index="0" speed="13.90" length="50" shape="38.05,1131.65 33.81,1131.04 30.78,1129.23 28.96,1126.19 28.35,1121.95"/>
    </edge>
    <edge id=":0/11_9" function="internal">
        <lane id=":0/11_9_0" index="0" speed="13.90" length="50" shape="38.05,1131.65 36.81,1130.82 36.40,1130.00 36.81,1129.17 38.05,1128.35"/>
    </edge>
    <edge id=":0/11_10" function="internal">
        <lane id=":0/11_10_0" index="0" speed="13.90" length="50" shape="34.95,1121.95 35.14,1123.31 35.73,1124.28 36.69,1124.86 38.05,1125.05"/>
    </edge>
    <edge id=":0/11_11" function="internal">
        <lane id=":0/11_11_0" index="0" speed="13.90" length="50" shape="34.95,1121.95 34.95,1138.05"/>
        <lane id=":0/11_11_1" index="1" speed="13.90" length="50" shape="31.65,1121.95 31.65,1138.05"/>
    </edge>
    <edge id=":0/11_13" function="internal">
        <lane id=":0/11_13_0" index="0" speed="13.90" length="50" shape="31.65,1121.95 31.04,1126.19 29.95,1128.02"/>
    </edge>
    <edge id=":0/11_14" function="internal">
        <lane id=":0/11_14_0" index="0" speed="13.90" length="50" shape="31.65,1121.95 30.82,1123.19 30.00,1123.60"/>
    </edge>
    <edge id=":0/11_22" function="internal">
        <lane id=":0/11_22_0" index="0" speed="13.90" length="50" shape="29.95,1128.02 29.22,1129.22 26.19,1131.04 21.95,1131.65"/>
    </edge>
    <edge id=":0/11_23" function="internal">
        <lane id=":0/11_23_0" index="0" speed="13.90" length="50" shape="30.00,1123.60 29.18,1123.19 28.35,1121.95"/>
    </edge>
    <edge id=":0/11_15" function="internal">
        <lane id=":0/11_15_0" index="0" speed="13.90" length="50" shape="21.95,1125.05 23.31,1124.86 24.28,1124.27 24.86,1123.31 25.05,1121.95"/>
    </edge>
    <edge id=":0/11_16" function="internal">
        <lane id=":0/11_16_0" index="0" speed="13.90" length="50" shape="21.95,1125.05 38.05,1125.05"/>
        <lane id=":0/11_16_1" index="1" speed="13.90" length="50" shape="21.95,1128.35 38.05,1128.35"/>
    </edge>
    <edge id=":0/11_18" function="internal">
        <lane id=":0/11_18_0" index="0" speed="13.90" length="50" shape="21.95,1128.35 26.19,1128.96 29.23,1130.77 31.04,1133.81 31.65,1138.05"/>
    </edge>
    <edge id=":0/11_19" function="internal">
        <lane id=":0/11_19_0" index="0" speed="13.90" length="50" shape="21.95,1128.35 23.19,1129.18 23.60,1130.00 23.19,1130.83 21.95,1131.65"/>
    </edge>
    <edge id=":0/12_0" function="internal">
        <lane id=":0/12_0_0" index="0" speed="13.90" length="50" shape="25.05,1238.05 24.86,1236.69 24.28,1235.72 23.31,1235.14 21.95,1234.95"/>
    </edge>
    <edge id=":0/12_1" function="internal">
        <lane id=":0/12_1_0" index="0" speed="13.90" length="50" shape="25.05,1238.05 25.05,1221.95"/>
        <lane id=":0/12_1_1" index="1" speed="13.90" length="50" shape="28.35,1238.05 28.35,1221.95"/>
    </edge>
    <edge id=":0/12_3" function="internal">
        <lane id=":0/12_3_0" index="0" speed="13.90" length="50" shape="28.35,1238.05 28.96,1233.81 30.05,1231.98"/>
    </edge>
    <edge id=":0/12_4" function="internal">
        <lane id=":0/12_4_0" index="0" speed="13.90" length="50" shape="28.35,1238.05 29.17,1236.81 30.00,1236.40"/>
    </edge>
    <edge id=":0/12_20" function="internal">
        <lane id=":0/12_20_0" index="0" speed="13.90" length="50" shape="30.05,1231.98 30.78,1230.78 33.81,1228.96 38.05,1228.35"/>
    </edge>
    <edge id=":0/12_21" function="internal">
        <lane id=":0/12_21_0" index="0" speed="13.90" length="50" shape="30.00,1236.40 30.82,1236.81 31.65,1238.05"/>
    </edge>
    <edge id=":0/12_5" function="internal">
        <lane id=":0/12_5_0" index="0" speed="13.90" length="50" shape="38.05,1234.95 36.69,1235.14 35.73,1235.73 35.14,1236.69 34.95,1238.05"/>
    </edge>
    <edge id=":0/12_6" function="internal">
        <lane id=":0/12_6_0" index="0" speed="13.90" length="50" shape="38.05,1234.95 21.95,1234.95"/>
        <lane id=":0/12_6_1" index="1" speed="13.90" length="50" shape="38.05,1231.65 21.95,1231.65"/>
    </edge>
    <edge id=":0/12_8" function="internal">
        <lane id=":0/12_8_0" index="0" speed="13.90" length="50" shape="38.05,1231.65 33.81,1231.04 30.78,1229.23 28.96,1226.19 28.35,1221.95"/>
    </edge>
    <edge id=":0/12_9" function="internal">
        <lane id=":0/12_9_0" index="0" speed="13.90" length="50" shape="38.05,1231.65 36.81,1230.82 36.40,1230.00 36.81,1229.17 38.05,1228.35"/>
    </edge>
    <edge id=":0/12_10" function="internal">
        <lane id=":0/12_10_0" index="0" speed="13.90" length="50" shape="34.95,1221.95 35.14,1223.31 35.73,1224.28 36.69,1224.86 38.05,1225.05"/>
    </edge>
    <edge id=":0/12_11" function="internal">
        <lane id=":0/12_11_0" index="0" speed="13.90" length="50" shape="34.95,1221.95 34.95,1238.05"/>
        <lane id=":0/12_11_1" index="1" speed="13.90" length="50" shape="31.65,1221.95 31.65,1238.05"/>
    </edge>
    <edge id=":0/12_13" function="internal">
        <lane id=":0/12_13_0" index="0" speed="13.90" length="50" shape="31.65,1221.95 31.04,1226.19 29.95,1228.02"/>
    </edge>
    <edge id=":0/12_14" function="internal">
        <lane id=":0/12_14_0" index="0" speed="13.90" length="50" shape="31.65,1221.95 30.82,1223.19 30.00,1223.60"/>
    </edge>
    <edge id=":0/12_22" function="internal">
        <lane id=":0/12_22_0" index="0" speed="13.90" length="50" shape="29.95,1228.02 29.22,1229.22 26.19,1231.04 21.95,1231.65"/>
    </edge>
    <edge id=":0/12_23" function="internal">
        <lane id=":0/12_23_0" index="0" speed="13.90" length="50" shape="30.00,1223.60 29.18,1223.19 28.35,1221.95"/>
    </edge>
    <edge id=":0/12_15" function="internal">
        <lane id=":0/12_15_0" index="0" speed="13.90" length="50" shape="21.95,1225.05 23.31,1224.86 24.28,1224.27 24.86,1223.31 25.05,1221.95"/>
    </edge>
    <edge id=":0/12_16" function="internal">
        <lane id=":0/12_16_0" index="0" speed="13.90" length="50" shape="21.95,1225.05 38.05,1225.05"/>
        <lane id=":0/12_16_1" index="1" speed="13.90" length="50" shape="21.95,1228.35 38.05,1228.35"/>
    </edge>
    <edge id=":0/12_18" function="internal">
        <lane id=":0/12_18_0" index="0" speed="13.90" length="50" shape="21.95,1228.35 26.19,1228.96 29.23,1230.77 31.04,1233.81 31.65,1238.05"/>
    </edge>
    <edge id=":0/12_19" function="internal">
        <lane id=":0/12_19_0" index="0" speed="13.90" length="50" shape="21.95,1228.35 23.19,1229.18 23.60,1230.00 23.19,1230.83 21.95,1231.65"/>
    </edge>
    <edge id=":0/13_0" function="internal">
        <lane id=":0/13_0_0" index="0" speed="13.90" length="50" shape="25.05,1338.05 24.86,1336.69 24.28,1335.72 23.31,1335.14 21.95,1334.95"/>
    </edge>
    <edge id=":0/13_1" function="internal">
        <lane id=":0/13_1_0" index="0" speed="13.90" length="50" shape="25.05,1338.05 25.05,1321.95"/>
        <lane id=":0/13_1_1" index="1" speed="13.90" length="50" shape="28.35,1338.05 28.35,1321.95"/>
    </edge>
    <edge id=":0/13_3" function="internal">
        <lane id=":0/13_3_0" index="0" speed="13.90" length="50" shape="28.35,1338.05 28.96,1333.81 30.05,1331.98"/>
    </edge>
    <edge id=":0/13_4" function="internal">
        <lane id=":0/13_4_0" index="0" speed="13.90" length="50" shape="28.35,1338.05 29.17,1336.81 30.00,1336.40"/>
    </edge>
    <edge id=":0/13_20" function="internal">
        <lane id=":0/13_20_0" index="0" speed="13.90" length="50" shape="30.05,1331.98 30.78,1330.78 33.81,1328.96 38.05,1328.35"/>
    </edge>
    <edge id=":0/13_21" function="internal">
        <lane id=":0/13_21_0" index="0" speed="13.90" length="50" shape="30.00,1336.40 30.82,1336.81 31.65,1338.05"/>
    </edge>
    <edge id=":0/13_5" function="internal">
        <lane id=":0/13_5_0" index="0" speed="13.90" length="50" shape="38.05,1334.95 36.69,1335.14 35.73,1335.73 35.14,1336.69 34.95,1338.05"/>
    </edge>
    <edge id=":0/13_6" function="internal">
        <lane id=":0/13_6_0" index="0" speed="13.90" length="50" shape="38.05,1334.95 21.95,1334.95"/>
        <lane id=":0/13_6_1" index="1" speed="13.90" length="50" shape="38.05,1331.65 21.95,1331.65"/>
    </edge>
    <edge id=":0/13_8" function="internal">
        <lane id=":0/13_8_0" index="0" speed="13.90" length="50" shape="38.05,1331.65 33.81,1331.04 30.78,1329.23 28.96,1326.19 28.35,1321.95"/>
    </edge>
    <edge id=":0/13_9" function="internal">
        <lane id=":0/13_9_0" index="0" speed="13.90" length="50" shape="38.05,1331.65 36.81,1330.82 36.40,1330.00 36.81,1329.17 38.05,1328.35"/>
    </edge>
    <edge id=":0/13_10" function="internal">
        <lane id=":0/13_10_0" index="0" speed="13.90" length="50" shape="34.95,1321.95 35.14,1323.31 35.73,1324.28 36.69,1324.86 38.05,1325.05"/>
    </edge>
    <edge id=":0/13_11" function="internal">
        <lane id=":0/13_11_0" index="0" speed="13.90" length="50" shape="34.95,1321.95 34.95,1338.05"/>
        <lane id=":0/13_11_1" index="1" speed="13.90" length="50" shape="31.65,1321.95 31.65,1338.05"/>
    </edge>
    <edge id=":0/13_13" function="internal">
        <lane id=":0/13_13_0" index="0" speed="13.90" length="50" shape="31.65,1321.95 31.04,1326.19 29.95,1328.02"/>
    </edge>
    <edge id=":0/13_14" function="internal">
        <lane id=":0/13_14_0" index="0" speed="13.90" length="50" shape="31.65,1321.95 30.82,1323.19 30.00,1323.60"/>
    </edge>
    <edge id=":0/13_22" function="internal">
        <lane id=":0/13_22_0" index="0" speed="13.90" length="50" shape="29.95,1328.02 29.22,1329.22 26.19,1331.04 21.95,1331.65"/>
    </edge>
    <edge id=":0/13_23" function="internal">
        <lane id=":0/13_23_0" index="0" speed="13.90" length="50" shape="30.00,1323.60 29.18,1323.19 28.35,1321.95"/>
    </edge>
    <edge id=":0/13_15" function="internal">
        <lane id=":0/13_15_0" index="0" speed="13.90" length="50" shape="21.95,1325.05 23.31,1324.86 24.28,1324.27 24.86,1323.31 25.05,1321.95"/>
    </edge>
    <edge id=":0/13_16" function="internal">
        <lane id=":0/13_16_0" index="0" speed="13.90" length="50" shape="21.95,1325.05 38.05,1325.05"/>
        <lane id=":0/13_16_1" index="1" speed="13.90" length="50" shape="21.95,1328.35 38.05,1328.35"/>
    </edge>
    <edge id=":0/13_18" function="internal">
        <lane id=":0/13_18_0" index="0" speed="13.90" length="50" shape="21.95,1328.35 26.19,1328.96 29.23,1330.77 31.04,1333.81 31.65,1338.05"/>
    </edge>
    <edge id=":0/13_19" function="internal">
        <lane id=":0/13_19_0" index="0" speed="13.90" length="50" shape="21.95,1328.35 23.19,1329.18 23.60,1330.00 23.19,1330.83 21.95,1331.65"/>
    </edge>
    <edge id=":0/14_0" function="internal">
        <lane id=":0/14_0_0" index="0" speed="13.90" length="50" shape="25.05,1438.05 24.86,1436.69 24.28,1435.72 23.31,1435.14 21.95,1434.95"/>
    </edge>
    <edge id=":0/14_1" function="internal">
        <lane id=":0/14_1_0" index="0" speed="13.90" length="50" shape="25.05,1438.05 25.05,1421.95"/>
        <lane id=":0/14_1_1" index="1" speed="13.90" length="50" shape="28.35,1438.05 28.35,1421.95"/>
    </edge>
    <edge id=":0/14_3" function="internal">
        <lane id=":0/14_3_0" index="0" speed="13.90" length="50" shape="28.35,1438.05 28.96,1433.81 30.05,1431.98"/>
    </edge>
    <edge id=":0/14_4" function="internal">
        <lane id=":0/14_4_0" index="0" speed="13.90" length="50" shape="28.35,1438.05 29.17,1436.81 30.00,1436.40"/>
    </edge>
    <edge id=":0/14_20" function="internal">
        <lane id=":0/14_20_0" index="0" speed="13.90" length="50" shape="30.05,1431.98 30.78,1430.78 33.81,1428.96 38.05,1428.35"/>
    </edge>
    <edge id=":0/14_21" function="internal">
        <lane id=":0/14_21_0" index="0" speed="13.90" length="50" shape="30.00,1436.40 30.82,1436.81 31.65,1438.05"/>
    </edge>
    <edge id=":0/14_5" function="internal">
        <lane id=":0/14_5_0" index="0" speed="13.90" length="50" shape="38.05,1434.95 36.69,1435.14 35.73,1435.73 35.14,1436.69 34.95,1438.05"/>
    </edge>
    <edge id=":0/14_6" function="internal">
        <lane id=":0/14_6_0" index="0" speed="13.90" length="50" shape="38.05,1434.95 21.95,1434.95"/>
        <lane id=":0/14_6_1" index="1" speed="13.90" length="50" shape="38.05,1431.65 21.95,1431.65"/>
    </edge>
    <edge id=":0/14_8" function="internal">
        <lane id=":0/14_8_0" index="0" speed="13.90" length="50" shape="38.05,1431.65 33.81,1431.04 30.78,1429.23 28.96,1426.19 28.35,1421.95"/>
    </edge>
    <edge id=":0/14_9" function="internal">
        <lane id=":0/14_9_0" index="0" speed="13.90" length="50" shape="38.05,1431.65 36.81,1430.82 36.40,1430.00 36.81,1429.17 38.05,1428.35"/>
    </edge>
    <edge id=":0/14_10" function="internal">
        <lane id=":0/14_10_0" index="0" speed="13.90" length="50" shape="34.95,1421.95 35.14,1423.31 35.73,1424.28 36.69,1424.86 38.05,1425.05"/>
    </edge>
    <edge id=":0/14_11" function="internal">
        <lane id=":0/14_11_0" index="0" speed="13.90" length="50" shape="34.95,1421.95 34.95,1438.05"/>
        <lane id=":0/14_11_1" index="1" speed="13.90" length="50" shape="31.65,1421.95 31.65,1438.05"/>
    </edge>
    <edge id=":0/14_13" function="internal">
        <lane id=":0/14_13_0" index="0" speed="13.90" length="50" shape="31.65,1421.95 31.04,1426.19 29.95,1428.02"/>
    </edge>
    <edge id=":0/14_14" function="internal">
        <lane id=":0/14_14_0" index="0" speed="13.90" length="50" shape="31.65,1421.95 30.82,1423.19 30.00,1423.60"/>
    </edge>
    <edge id=":0/14_22" function="internal">
        <lane id=":0/14_22_0" index="0" speed="13.90" length="50" shape="29.95,1428.02 29.22,1429.22 26.19,1431.04 21.95,1431.65"/>
    </edge>
    <edge id=":0/14_23" function="internal">
        <lane id=":0/14_23_0" index="0" speed="13.90" length="50" shape="30.00,1423.60 29.18,1423.19 28.35,1421.95"/>
    </edge>
    <edge id=":0/14_15" function="internal">
        <lane id=":0/14_15_0" index="0" speed="13.90" length="50" shape="21.95,1425.05 23.31,1424.86 24.28,1424.27 24.86,1423.31 25.05,1421.95"/>
    </edge>
    <edge id=":0/14_16" function="internal">
        <lane id=":0/14_16_0" index="0" speed="13.90" length="50" shape="21.95,1425.05 38.05,1425.05"/>
        <lane id=":0/14_16_1" index="1" speed="13.90" length="50" shape="21.95,1428.35 38.05,1428.35"/>
    </edge>
    <edge id=":0/14_18" function="internal">
        <lane id=":0/14_18_0" index="0" speed="13.90" length="50" shape="21.95,1428.35 26.19,1428.96 29.23,1430.77 31.04,1433.81 31.65,1438.05"/>
    </edge>
    <edge id=":0/14_19" function="internal">
        <lane id=":0/14_19_0" index="0" speed="13.90" length="50" shape="21.95,1428.35 23.19,1429.18 23.60,1430.00 23.19,1430.83 21.95,1431.65"/>
    </edge>
    <edge id=":0/15_0" function="internal">
        <lane id=":0/15_0_0" index="0" speed="13.90" length="50" shape="25.05,1538.05 24.86,1536.69 24.28,1535.72 23.31,1535.14 21.95,1534.95"/>
    </edge>
    <edge id=":0/15_1" function="internal">
        <lane id=":0/15_1_0" index="0" speed="13.90" length="50" shape="25.05,1538.05 25.05,1521.95"/>
        <lane id=":0/15_1_1" index="1" speed="13.90" length="50" shape="28.35,1538.05 28.35,1521.95"/>