<!-- Generated by mutraff_tazcalc. alvaro.paricio@uah.es -->
  -->
<tazs>
  <!-- name="taz_sanchinarro" -->
  <taz id="1000" edges="178451567#1 23604091#2 350046877 23604091#0 23604091#1 25994326#0 31516861#1 350046878 220958534 243040733#0 220958533 100682794 220958531 243040733#1 34778563#1 243040735#1 23570750#4 -350046880 24031683#0 243040730 24031683#2 7990841 31516861#0 23689562 23689561 31516859#1 31516859#0 -350046877 20617535#2 20617535#0 20617535#1 24031683#1 31516860#1 31516860#0 46714372#1 46714372#0 28119760#0 252667984#1 27269040 46714801 28120211#1 198862625 23695675 198862620 198862609 350046880 27921855 48098911 243040728 243040735#0 -24031683#1 -24031683#2 31501529 96806894 198862630 220958532 252667982 258340584 100682792 100682793 350046859 23572221 -24031683#0 350046876#2 350046876#1 24014142 31516858 28119759#1 28119759#0 -350046878" />
  <!-- name="taz_n1_sur" -->
  <taz id="1001" edges="220958546#0 31510029#2 31510029#1 24260364 24661103#0 24661103#1 23570749#1 -23502729 24031615#1 24031615#0 350046857#2 350046868 23502729 27329978#0 27329978#1 220958546#2 220958546#1 198862598 349660584 349878279 220958547 220958543 96806893 23570731#0 349878277 349878275 349878274 24252067 350046853 350046855" />
  <!-- name="taz_distrito_c" -->
  <taz id="1002" edges="23590688#0 20616415 23590621 365781355 34305140 23590637#0 23590637#1 243040716 365781348 365756273#0 365756273#1 -20616415 23551895#0 -34305140 243040741 23590678#1 23590678#0 365756274 23590688#1 243040742 242254196 243040740 -23590637#0 -23590637#1 196563502 -365756273#0 -365756273#1 23590678#2 23590790#0 23590790#1 23590790#2 23785447#1" />
  <!-- name="taz_fuencarral" -->
  <taz id="1003" edges="97405291#0" />
  <!-- name="taz_nudo_n1" -->
  <taz id="1004" edges="31952422 4208546 4684688 31952426 31952424 31952248 31952428 4085414 80347011 31952421 31952219" />
  <!-- name="taz_m40_norte" -->
  <taz id="1005" edges="395691398 32662615 32662616 28108001#0 32662617 97405322 242254206#1 242254206#0 97405291#6 28108001#1 251271721 395691397 242254211#1 250683381 251271720 242254211#2 242254213 -28108002#2 23802803 24249433#0 28108002#2" />
</tazs>
