<!-- Check options available at: https://sumo.dlr.de/xsd/sumoConfiguration.xsd -->
<configuration>
    <input>
        <net-file value="alcalahenares_L3h_nomaps_tele30_timeALL_fulltraffic_01.net.xml"/>
        <route-files value="alcalahenares_L3h_nomaps_tele30_timeALL_fulltraffic_01.typed-routes.xml"/>
	<remote-port value="4080"/>
    </input>

    <time>
        <begin value="0"/>
        <end value="2000"/>
    </time>

    <processing>
        <!-- <time-to-teleport value="-1"/> -->
        <time-to-teleport value="30"/>
    </processing>

    <report>
        <no-warnings value="yes"/>
        <no-step-log value="yes"/>
	<print-options value="yes"/>
    </report>

</configuration>
