<?xml version="1.0" encoding="UTF-8"?>

<!-- generated on Thu Nov  3 08:49:40 2016 by SUMO netgenerate Version 0.27.1
<?xml version="1.0" encoding="UTF-8"?>

<configuration xmlns:xsi="http://www.w3.org/2001/XMLSchema-instance" xsi:noNamespaceSchemaLocation="http://sumo.dlr.de/xsd/netgenerateConfiguration.xsd">

    <grid_network>
        <grid value="true"/>
        <grid.number value="16"/>
        <grid.length value="100"/>
        <grid.attach-length value="30"/>
    </grid_network>

    <output>
        <output-file value="grid16_Bastra_rand2x4_timeALL_randomtraffic_logit100.net.xml"/>
        <plain-output-prefix value="grid16_Bastra_rand2x4_timeALL_randomtraffic_logit100"/>
    </output>

    <building_defaults>
        <default.lanenumber value="1"/>
        <default.speed value="13.9"/>
        <default.priority value="-1"/>
    </building_defaults>

    <report>
        <verbose value="true"/>
    </report>

</configuration>
-->

<connections version="0.27" xmlns:xsi="http://www.w3.org/2001/XMLSchema-instance" xsi:noNamespaceSchemaLocation="http://sumo.dlr.de/xsd/connections_file.xsd">
    <connection from="0/0to0/1" to="0/1to1/1" fromLane="0" toLane="0"/>
    <connection from="0/0to0/1" to="0/1to0/2" fromLane="0" toLane="0"/>
    <connection from="0/0to0/1" to="0/1toleft1" fromLane="0" toLane="0"/>
    <connection from="0/0to0/1" to="0/1to0/0" fromLane="0" toLane="0"/>

    <connection from="0/0to1/0" to="1/0tobottom1" fromLane="0" toLane="0"/>
    <connection from="0/0to1/0" to="1/0to2/0" fromLane="0" toLane="0"/>
    <connection from="0/0to1/0" to="1/0to1/1" fromLane="0" toLane="0"/>
    <connection from="0/0to1/0" to="1/0to0/0" fromLane="0" toLane="0"/>

    <connection from="0/0tobottom0" to="bottom0to0/0" fromLane="0" toLane="0"/>

    <connection from="0/0toleft0" to="left0to0/0" fromLane="0" toLane="0"/>

    <connection from="0/10to0/11" to="0/11to1/11" fromLane="0" toLane="0"/>
    <connection from="0/10to0/11" to="0/11to0/12" fromLane="0" toLane="0"/>
    <connection from="0/10to0/11" to="0/11toleft11" fromLane="0" toLane="0"/>
    <connection from="0/10to0/11" to="0/11to0/10" fromLane="0" toLane="0"/>

    <connection from="0/10to0/9" to="0/9toleft9" fromLane="0" toLane="0"/>
    <connection from="0/10to0/9" to="0/9to0/8" fromLane="0" toLane="0"/>
    <connection from="0/10to0/9" to="0/9to1/9" fromLane="0" toLane="0"/>
    <connection from="0/10to0/9" to="0/9to0/10" fromLane="0" toLane="0"/>

    <connection from="0/10to1/10" to="1/10to1/9" fromLane="0" toLane="0"/>
    <connection from="0/10to1/10" to="1/10to2/10" fromLane="0" toLane="0"/>
    <connection from="0/10to1/10" to="1/10to1/11" fromLane="0" toLane="0"/>
    <connection from="0/10to1/10" to="1/10to0/10" fromLane="0" toLane="0"/>

    <connection from="0/10toleft10" to="left10to0/10" fromLane="0" toLane="0"/>

    <connection from="0/11to0/10" to="0/10toleft10" fromLane="0" toLane="0"/>
    <connection from="0/11to0/10" to="0/10to0/9" fromLane="0" toLane="0"/>
    <connection from="0/11to0/10" to="0/10to1/10" fromLane="0" toLane="0"/>
    <connection from="0/11to0/10" to="0/10to0/11" fromLane="0" toLane="0"/>

    <connection from="0/11to0/12" to="0/12to1/12" fromLane="0" toLane="0"/>
    <connection from="0/11to0/12" to="0/12to0/13" fromLane="0" toLane="0"/>
    <connection from="0/11to0/12" to="0/12toleft12" fromLane="0" toLane="0"/>
    <connection from="0/11to0/12" to="0/12to0/11" fromLane="0" toLane="0"/>

    <connection from="0/11to1/11" to="1/11to1/10" fromLane="0" toLane="0"/>
    <connection from="0/11to1/11" to="1/11to2/11" fromLane="0" toLane="0"/>
    <connection from="0/11to1/11" to="1/11to1/12" fromLane="0" toLane="0"/>
    <connection from="0/11to1/11" to="1/11to0/11" fromLane="0" toLane="0"/>

    <connection from="0/11toleft11" to="left11to0/11" fromLane="0" toLane="0"/>

    <connection from="0/12to0/11" to="0/11toleft11" fromLane="0" toLane="0"/>
    <connection from="0/12to0/11" to="0/11to0/10" fromLane="0" toLane="0"/>
    <connection from="0/12to0/11" to="0/11to1/11" fromLane="0" toLane="0"/>
    <connection from="0/12to0/11" to="0/11to0/12" fromLane="0" toLane="0"/>

    <connection from="0/12to0/13" to="0/13to1/13" fromLane="0" toLane="0"/>
    <connection from="0/12to0/13" to="0/13to0/14" fromLane="0" toLane="0"/>
    <connection from="0/12to0/13" to="0/13toleft13" fromLane="0" toLane="0"/>
    <connection from="0/12to0/13" to="0/13to0/12" fromLane="0" toLane="0"/>

    <connection from="0/12to1/12" to="1/12to1/11" fromLane="0" toLane="0"/>
    <connection from="0/12to1/12" to="1/12to2/12" fromLane="0" toLane="0"/>
    <connection from="0/12to1/12" to="1/12to1/13" fromLane="0" toLane="0"/>
    <connection from="0/12to1/12" to="1/12to0/12" fromLane="0" toLane="0"/>

    <connection from="0/12toleft12" to="left12to0/12" fromLane="0" toLane="0"/>

    <connection from="0/13to0/12" to="0/12toleft12" fromLane="0" toLane="0"/>
    <connection from="0/13to0/12" to="0/12to0/11" fromLane="0" toLane="0"/>
    <connection from="0/13to0/12" to="0/12to1/12" fromLane="0" toLane="0"/>
    <connection from="0/13to0/12" to="0/12to0/13" fromLane="0" toLane="0"/>

    <connection from="0/13to0/14" to="0/14to1/14" fromLane="0" toLane="0"/>
    <connection from="0/13to0/14" to="0/14to0/15" fromLane="0" toLane="0"/>
    <connection from="0/13to0/14" to="0/14toleft14" fromLane="0" toLane="0"/>
    <connection from="0/13to0/14" to="0/14to0/13" fromLane="0" toLane="0"/>

    <connection from="0/13to1/13" to="1/13to1/12" fromLane="0" toLane="0"/>
    <connection from="0/13to1/13" to="1/13to2/13" fromLane="0" toLane="0"/>
    <connection from="0/13to1/13" to="1/13to1/14" fromLane="0" toLane="0"/>
    <connection from="0/13to1/13" to="1/13to0/13" fromLane="0" toLane="0"/>

    <connection from="0/13toleft13" to="left13to0/13" fromLane="0" toLane="0"/>

    <connection from="0/14to0/13" to="0/13toleft13" fromLane="0" toLane="0"/>
    <connection from="0/14to0/13" to="0/13to0/12" fromLane="0" toLane="0"/>
    <connection from="0/14to0/13" to="0/13to1/13" fromLane="0" toLane="0"/>
    <connection from="0/14to0/13" to="0/13to0/14" fromLane="0" toLane="0"/>

    <connection from="0/14to0/15" to="0/15to1/15" fromLane="0" toLane="0"/>
    <connection from="0/14to0/15" to="0/15totop0" fromLane="0" toLane="0"/>
    <connection from="0/14to0/15" to="0/15toleft15" fromLane="0" toLane="0"/>
    <connection from="0/14to0/15" to="0/15to0/14" fromLane="0" toLane="0"/>

    <connection from="0/14to1/14" to="1/14to1/13" fromLane="0" toLane="0"/>
    <connection from="0/14to1/14" to="1/14to2/14" fromLane="0" toLane="0"/>
    <connection from="0/14to1/14" to="1/14to1/15" fromLane="0" toLane="0"/>
    <connection from="0/14to1/14" to="1/14to0/14" fromLane="0" toLane="0"/>

    <connection from="0/14toleft14" to="left14to0/14" fromLane="0" toLane="0"/>

    <connection from="0/15to0/14" to="0/14toleft14" fromLane="0" toLane="0"/>
    <connection from="0/15to0/14" to="0/14to0/13" fromLane="0" toLane="0"/>
    <connection from="0/15to0/14" to="0/14to1/14" fromLane="0" toLane="0"/>
    <connection from="0/15to0/14" to="0/14to0/15" fromLane="0" toLane="0"/>

    <connection from="0/15to1/15" to="1/15to1/14" fromLane="0" toLane="0"/>
    <connection from="0/15to1/15" to="1/15to2/15" fromLane="0" toLane="0"/>
    <connection from="0/15to1/15" to="1/15totop1" fromLane="0" toLane="0"/>
    <connection from="0/15to1/15" to="1/15to0/15" fromLane="0" toLane="0"/>

    <connection from="0/15toleft15" to="left15to0/15" fromLane="0" toLane="0"/>

    <connection from="0/15totop0" to="top0to0/15" fromLane="0" toLane="0"/>

    <connection from="0/1to0/0" to="0/0toleft0" fromLane="0" toLane="0"/>
    <connection from="0/1to0/0" to="0/0tobottom0" fromLane="0" toLane="0"/>
    <connection from="0/1to0/0" to="0/0to1/0" fromLane="0" toLane="0"/>
    <connection from="0/1to0/0" to="0/0to0/1" fromLane="0" toLane="0"/>

    <connection from="0/1to0/2" to="0/2to1/2" fromLane="0" toLane="0"/>
    <connection from="0/1to0/2" to="0/2to0/3" fromLane="0" toLane="0"/>
    <connection from="0/1to0/2" to="0/2toleft2" fromLane="0" toLane="0"/>
    <connection from="0/1to0/2" to="0/2to0/1" fromLane="0" toLane="0"/>

    <connection from="0/1to1/1" to="1/1to1/0" fromLane="0" toLane="0"/>
    <connection from="0/1to1/1" to="1/1to2/1" fromLane="0" toLane="0"/>
    <connection from="0/1to1/1" to="1/1to1/2" fromLane="0" toLane="0"/>
    <connection from="0/1to1/1" to="1/1to0/1" fromLane="0" toLane="0"/>

    <connection from="0/1toleft1" to="left1to0/1" fromLane="0" toLane="0"/>

    <connection from="0/2to0/1" to="0/1toleft1" fromLane="0" toLane="0"/>
    <connection from="0/2to0/1" to="0/1to0/0" fromLane="0" toLane="0"/>
    <connection from="0/2to0/1" to="0/1to1/1" fromLane="0" toLane="0"/>
    <connection from="0/2to0/1" to="0/1to0/2" fromLane="0" toLane="0"/>

    <connection from="0/2to0/3" to="0/3to1/3" fromLane="0" toLane="0"/>
    <connection from="0/2to0/3" to="0/3to0/4" fromLane="0" toLane="0"/>
    <connection from="0/2to0/3" to="0/3toleft3" fromLane="0" toLane="0"/>
    <connection from="0/2to0/3" to="0/3to0/2" fromLane="0" toLane="0"/>

    <connection from="0/2to1/2" to="1/2to1/1" fromLane="0" toLane="0"/>
    <connection from="0/2to1/2" to="1/2to2/2" fromLane="0" toLane="0"/>
    <connection from="0/2to1/2" to="1/2to1/3" fromLane="0" toLane="0"/>
    <connection from="0/2to1/2" to="1/2to0/2" fromLane="0" toLane="0"/>

    <connection from="0/2toleft2" to="left2to0/2" fromLane="0" toLane="0"/>

    <connection from="0/3to0/2" to="0/2toleft2" fromLane="0" toLane="0"/>
    <connection from="0/3to0/2" to="0/2to0/1" fromLane="0" toLane="0"/>
    <connection from="0/3to0/2" to="0/2to1/2" fromLane="0" toLane="0"/>
    <connection from="0/3to0/2" to="0/2to0/3" fromLane="0" toLane="0"/>

    <connection from="0/3to0/4" to="0/4to1/4" fromLane="0" toLane="0"/>
    <connection from="0/3to0/4" to="0/4to0/5" fromLane="0" toLane="0"/>
    <connection from="0/3to0/4" to="0/4toleft4" fromLane="0" toLane="0"/>
    <connection from="0/3to0/4" to="0/4to0/3" fromLane="0" toLane="0"/>

    <connection from="0/3to1/3" to="1/3to1/2" fromLane="0" toLane="0"/>
    <connection from="0/3to1/3" to="1/3to2/3" fromLane="0" toLane="0"/>
    <connection from="0/3to1/3" to="1/3to1/4" fromLane="0" toLane="0"/>
    <connection from="0/3to1/3" to="1/3to0/3" fromLane="0" toLane="0"/>

    <connection from="0/3toleft3" to="left3to0/3" fromLane="0" toLane="0"/>

    <connection from="0/4to0/3" to="0/3toleft3" fromLane="0" toLane="0"/>
    <connection from="0/4to0/3" to="0/3to0/2" fromLane="0" toLane="0"/>
    <connection from="0/4to0/3" to="0/3to1/3" fromLane="0" toLane="0"/>
    <connection from="0/4to0/3" to="0/3to0/4" fromLane="0" toLane="0"/>

    <connection from="0/4to0/5" to="0/5to1/5" fromLane="0" toLane="0"/>
    <connection from="0/4to0/5" to="0/5to0/6" fromLane="0" toLane="0"/>
    <connection from="0/4to0/5" to="0/5toleft5" fromLane="0" toLane="0"/>
    <connection from="0/4to0/5" to="0/5to0/4" fromLane="0" toLane="0"/>

    <connection from="0/4to1/4" to="1/4to1/3" fromLane="0" toLane="0"/>
    <connection from="0/4to1/4" to="1/4to2/4" fromLane="0" toLane="0"/>
    <connection from="0/4to1/4" to="1/4to1/5" fromLane="0" toLane="0"/>
    <connection from="0/4to1/4" to="1/4to0/4" fromLane="0" toLane="0"/>

    <connection from="0/4toleft4" to="left4to0/4" fromLane="0" toLane="0"/>

    <connection from="0/5to0/4" to="0/4toleft4" fromLane="0" toLane="0"/>
    <connection from="0/5to0/4" to="0/4to0/3" fromLane="0" toLane="0"/>
    <connection from="0/5to0/4" to="0/4to1/4" fromLane="0" toLane="0"/>
    <connection from="0/5to0/4" to="0/4to0/5" fromLane="0" toLane="0"/>

    <connection from="0/5to0/6" to="0/6to1/6" fromLane="0" toLane="0"/>
    <connection from="0/5to0/6" to="0/6to0/7" fromLane="0" toLane="0"/>
    <connection from="0/5to0/6" to="0/6toleft6" fromLane="0" toLane="0"/>
    <connection from="0/5to0/6" to="0/6to0/5" fromLane="0" toLane="0"/>

    <connection from="0/5to1/5" to="1/5to1/4" fromLane="0" toLane="0"/>
    <connection from="0/5to1/5" to="1/5to2/5" fromLane="0" toLane="0"/>
    <connection from="0/5to1/5" to="1/5to1/6" fromLane="0" toLane="0"/>
    <connection from="0/5to1/5" to="1/5to0/5" fromLane="0" toLane="0"/>

    <connection from="0/5toleft5" to="left5to0/5" fromLane="0" toLane="0"/>

    <connection from="0/6to0/5" to="0/5toleft5" fromLane="0" toLane="0"/>
    <connection from="0/6to0/5" to="0/5to0/4" fromLane="0" toLane="0"/>
    <connection from="0/6to0/5" to="0/5to1/5" fromLane="0" toLane="0"/>
    <connection from="0/6to0/5" to="0/5to0/6" fromLane="0" toLane="0"/>

    <connection from="0/6to0/7" to="0/7to1/7" fromLane="0" toLane="0"/>
    <connection from="0/6to0/7" to="0/7to0/8" fromLane="0" toLane="0"/>
    <connection from="0/6to0/7" to="0/7toleft7" fromLane="0" toLane="0"/>
    <connection from="0/6to0/7" to="0/7to0/6" fromLane="0" toLane="0"/>

    <connection from="0/6to1/6" to="1/6to1/5" fromLane="0" toLane="0"/>
    <connection from="0/6to1/6" to="1/6to2/6" fromLane="0" toLane="0"/>
    <connection from="0/6to1/6" to="1/6to1/7" fromLane="0" toLane="0"/>
    <connection from="0/6to1/6" to="1/6to0/6" fromLane="0" toLane="0"/>

    <connection from="0/6toleft6" to="left6to0/6" fromLane="0" toLane="0"/>

    <connection from="0/7to0/6" to="0/6toleft6" fromLane="0" toLane="0"/>
    <connection from="0/7to0/6" to="0/6to0/5" fromLane="0" toLane="0"/>
    <connection from="0/7to0/6" to="0/6to1/6" fromLane="0" toLane="0"/>
    <connection from="0/7to0/6" to="0/6to0/7" fromLane="0" toLane="0"/>

    <connection from="0/7to0/8" to="0/8to1/8" fromLane="0" toLane="0"/>
    <connection from="0/7to0/8" to="0/8to0/9" fromLane="0" toLane="0"/>
    <connection from="0/7to0/8" to="0/8toleft8" fromLane="0" toLane="0"/>
    <connection from="0/7to0/8" to="0/8to0/7" fromLane="0" toLane="0"/>

    <connection from="0/7to1/7" to="1/7to1/6" fromLane="0" toLane="0"/>
    <connection from="0/7to1/7" to="1/7to2/7" fromLane="0" toLane="0"/>
    <connection from="0/7to1/7" to="1/7to1/8" fromLane="0" toLane="0"/>
    <connection from="0/7to1/7" to="1/7to0/7" fromLane="0" toLane="0"/>

    <connection from="0/7toleft7" to="left7to0/7" fromLane="0" toLane="0"/>

    <connection from="0/8to0/7" to="0/7toleft7" fromLane="0" toLane="0"/>
    <connection from="0/8to0/7" to="0/7to0/6" fromLane="0" toLane="0"/>
    <connection from="0/8to0/7" to="0/7to1/7" fromLane="0" toLane="0"/>
    <connection from="0/8to0/7" to="0/7to0/8" fromLane="0" toLane="0"/>

    <connection from="0/8to0/9" to="0/9to1/9" fromLane="0" toLane="0"/>
    <connection from="0/8to0/9" to="0/9to0/10" fromLane="0" toLane="0"/>
    <connection from="0/8to0/9" to="0/9toleft9" fromLane="0" toLane="0"/>
    <connection from="0/8to0/9" to="0/9to0/8" fromLane="0" toLane="0"/>

    <connection from="0/8to1/8" to="1/8to1/7" fromLane="0" toLane="0"/>
    <connection from="0/8to1/8" to="1/8to2/8" fromLane="0" toLane="0"/>
    <connection from="0/8to1/8" to="1/8to1/9" fromLane="0" toLane="0"/>
    <connection from="0/8to1/8" to="1/8to0/8" fromLane="0" toLane="0"/>

    <connection from="0/8toleft8" to="left8to0/8" fromLane="0" toLane="0"/>

    <connection from="0/9to0/10" to="0/10to1/10" fromLane="0" toLane="0"/>
    <connection from="0/9to0/10" to="0/10to0/11" fromLane="0" toLane="0"/>
    <connection from="0/9to0/10" to="0/10toleft10" fromLane="0" toLane="0"/>
    <connection from="0/9to0/10" to="0/10to0/9" fromLane="0" toLane="0"/>

    <connection from="0/9to0/8" to="0/8toleft8" fromLane="0" toLane="0"/>
    <connection from="0/9to0/8" to="0/8to0/7" fromLane="0" toLane="0"/>
    <connection from="0/9to0/8" to="0/8to1/8" fromLane="0" toLane="0"/>
    <connection from="0/9to0/8" to="0/8to0/9" fromLane="0" toLane="0"/>

    <connection from="0/9to1/9" to="1/9to1/8" fromLane="0" toLane="0"/>
    <connection from="0/9to1/9" to="1/9to2/9" fromLane="0" toLane="0"/>
    <connection from="0/9to1/9" to="1/9to1/10" fromLane="0" toLane="0"/>
    <connection from="0/9to1/9" to="1/9to0/9" fromLane="0" toLane="0"/>

    <connection from="0/9toleft9" to="left9to0/9" fromLane="0" toLane="0"/>

    <connection from="1/0to0/0" to="0/0to0/1" fromLane="0" toLane="0"/>
    <connection from="1/0to0/0" to="0/0toleft0" fromLane="0" toLane="0"/>
    <connection from="1/0to0/0" to="0/0tobottom0" fromLane="0" toLane="0"/>
    <connection from="1/0to0/0" to="0/0to1/0" fromLane="0" toLane="0"/>

    <connection from="1/0to1/1" to="1/1to2/1" fromLane="0" toLane="0"/>
    <connection from="1/0to1/1" to="1/1to1/2" fromLane="0" toLane="0"/>
    <connection from="1/0to1/1" to="1/1to0/1" fromLane="0" toLane="0"/>
    <connection from="1/0to1/1" to="1/1to1/0" fromLane="0" toLane="0"/>

    <connection from="1/0to2/0" to="2/0tobottom2" fromLane="0" toLane="0"/>
    <connection from="1/0to2/0" to="2/0to3/0" fromLane="0" toLane="0"/>
    <connection from="1/0to2/0" to="2/0to2/1" fromLane="0" toLane="0"/>
    <connection from="1/0to2/0" to="2/0to1/0" fromLane="0" toLane="0"/>

    <connection from="1/0tobottom1" to="bottom1to1/0" fromLane="0" toLane="0"/>

    <connection from="1/10to0/10" to="0/10to0/11" fromLane="0" toLane="0"/>
    <connection from="1/10to0/10" to="0/10toleft10" fromLane="0" toLane="0"/>
    <connection from="1/10to0/10" to="0/10to0/9" fromLane="0" toLane="0"/>
    <connection from="1/10to0/10" to="0/10to1/10" fromLane="0" toLane="0"/>

    <connection from="1/10to1/11" to="1/11to2/11" fromLane="0" toLane="0"/>
    <connection from="1/10to1/11" to="1/11to1/12" fromLane="0" toLane="0"/>
    <connection from="1/10to1/11" to="1/11to0/11" fromLane="0" toLane="0"/>
    <connection from="1/10to1/11" to="1/11to1/10" fromLane="0" toLane="0"/>

    <connection from="1/10to1/9" to="1/9to0/9" fromLane="0" toLane="0"/>
    <connection from="1/10to1/9" to="1/9to1/8" fromLane="0" toLane="0"/>
    <connection from="1/10to1/9" to="1/9to2/9" fromLane="0" toLane="0"/>
    <connection from="1/10to1/9" to="1/9to1/10" fromLane="0" toLane="0"/>

    <connection from="1/10to2/10" to="2/10to2/9" fromLane="0" toLane="0"/>
    <connection from="1/10to2/10" to="2/10to3/10" fromLane="0" toLane="0"/>
    <connection from="1/10to2/10" to="2/10to2/11" fromLane="0" toLane="0"/>
    <connection from="1/10to2/10" to="2/10to1/10" fromLane="0" toLane="0"/>

    <connection from="1/11to0/11" to="0/11to0/12" fromLane="0" toLane="0"/>
    <connection from="1/11to0/11" to="0/11toleft11" fromLane="0" toLane="0"/>
    <connection from="1/11to0/11" to="0/11to0/10" fromLane="0" toLane="0"/>
    <connection from="1/11to0/11" to="0/11to1/11" fromLane="0" toLane="0"/>

    <connection from="1/11to1/10" to="1/10to0/10" fromLane="0" toLane="0"/>
    <connection from="1/11to1/10" to="1/10to1/9" fromLane="0" toLane="0"/>
    <connection from="1/11to1/10" to="1/10to2/10" fromLane="0" toLane="0"/>
    <connection from="1/11to1/10" to="1/10to1/11" fromLane="0" toLane="0"/>

    <connection from="1/11to1/12" to="1/12to2/12" fromLane="0" toLane="0"/>
    <connection from="1/11to1/12" to="1/12to1/13" fromLane="0" toLane="0"/>
    <connection from="1/11to1/12" to="1/12to0/12" fromLane="0" toLane="0"/>
    <connection from="1/11to1/12" to="1/12to1/11" fromLane="0" toLane="0"/>

    <connection from="1/11to2/11" to="2/11to2/10" fromLane="0" toLane="0"/>
    <connection from="1/11to2/11" to="2/11to3/11" fromLane="0" toLane="0"/>
    <connection from="1/11to2/11" to="2/11to2/12" fromLane="0" toLane="0"/>
    <connection from="1/11to2/11" to="2/11to1/11" fromLane="0" toLane="0"/>

    <connection from="1/12to0/12" to="0/12to0/13" fromLane="0" toLane="0"/>
    <connection from="1/12to0/12" to="0/12toleft12" fromLane="0" toLane="0"/>
    <connection from="1/12to0/12" to="0/12to0/11" fromLane="0" toLane="0"/>
    <connection from="1/12to0/12" to="0/12to1/12" fromLane="0" toLane="0"/>

    <connection from="1/12to1/11" to="1/11to0/11" fromLane="0" toLane="0"/>
    <connection from="1/12to1/11" to="1/11to1/10" fromLane="0" toLane="0"/>
    <connection from="1/12to1/11" to="1/11to2/11" fromLane="0" toLane="0"/>
    <connection from="1/12to1/11" to="1/11to1/12" fromLane="0" toLane="0"/>

    <connection from="1/12to1/13" to="1/13to2/13" fromLane="0" toLane="0"/>
    <connection from="1/12to1/13" to="1/13to1/14" fromLane="0" toLane="0"/>
    <connection from="1/12to1/13" to="1/13to0/13" fromLane="0" toLane="0"/>
    <connection from="1/12to1/13" to="1/13to1/12" fromLane="0" toLane="0"/>

    <connection from="1/12to2/12" to="2/12to2/11" fromLane="0" toLane="0"/>
    <connection from="1/12to2/12" to="2/12to3/12" fromLane="0" toLane="0"/>
    <connection from="1/12to2/12" to="2/12to2/13" fromLane="0" toLane="0"/>
    <connection from="1/12to2/12" to="2/12to1/12" fromLane="0" toLane="0"/>

    <connection from="1/13to0/13" to="0/13to0/14" fromLane="0" toLane="0"/>
    <connection from="1/13to0/13" to="0/13toleft13" fromLane="0" toLane="0"/>
    <connection from="1/13to0/13" to="0/13to0/12" fromLane="0" toLane="0"/>
    <connection from="1/13to0/13" to="0/13to1/13" fromLane="0" toLane="0"/>

    <connection from="1/13to1/12" to="1/12to0/12" fromLane="0" toLane="0"/>
    <connection from="1/13to1/12" to="1/12to1/11" fromLane="0" toLane="0"/>
    <connection from="1/13to1/12" to="1/12to2/12" fromLane="0" toLane="0"/>
    <connection from="1/13to1/12" to="1/12to1/13" fromLane="0" toLane="0"/>

    <connection from="1/13to1/14" to="1/14to2/14" fromLane="0" toLane="0"/>
    <connection from="1/13to1/14" to="1/14to1/15" fromLane="0" toLane="0"/>
    <connection from="1/13to1/14" to="1/14to0/14" fromLane="0" toLane="0"/>
    <connection from="1/13to1/14" to="1/14to1/13" fromLane="0" toLane="0"/>

    <connection from="1/13to2/13" to="2/13to2/12" fromLane="0" toLane="0"/>
    <connection from="1/13to2/13" to="2/13to3/13" fromLane="0" toLane="0"/>
    <connection from="1/13to2/13" to="2/13to2/14" fromLane="0" toLane="0"/>
    <connection from="1/13to2/13" to="2/13to1/13" fromLane="0" toLane="0"/>

    <connection from="1/14to0/14" to="0/14to0/15" fromLane="0" toLane="0"/>
    <connection from="1/14to0/14" to="0/14toleft14" fromLane="0" toLane="0"/>
    <connection from="1/14to0/14" to="0/14to0/13" fromLane="0" toLane="0"/>
    <connection from="1/14to0/14" to="0/14to1/14" fromLane="0" toLane="0"/>

    <connection from="1/14to1/13" to="1/13to0/13" fromLane="0" toLane="0"/>
    <connection from="1/14to1/13" to="1/13to1/12" fromLane="0" toLane="0"/>
    <connection from="1/14to1/13" to="1/13to2/13" fromLane="0" toLane="0"/>
    <connection from="1/14to1/13" to="1/13to1/14" fromLane="0" toLane="0"/>

    <connection from="1/14to1/15" to="1/15to2/15" fromLane="0" toLane="0"/>
    <connection from="1/14to1/15" to="1/15totop1" fromLane="0" toLane="0"/>
    <connection from="1/14to1/15" to="1/15to0/15" fromLane="0" toLane="0"/>
    <connection from="1/14to1/15" to="1/15to1/14" fromLane="0" toLane="0"/>

    <connection from="1/14to2/14" to="2/14to2/13" fromLane="0" toLane="0"/>
    <connection from="1/14to2/14" to="2/14to3/14" fromLane="0" toLane="0"/>
    <connection from="1/14to2/14" to="2/14to2/15" fromLane="0" toLane="0"/>
    <connection from="1/14to2/14" to="2/14to1/14" fromLane="0" toLane="0"/>

    <connection from="1/15to0/15" to="0/15totop0" fromLane="0" toLane="0"/>
    <connection from="1/15to0/15" to="0/15toleft15" fromLane="0" toLane="0"/>
    <connection from="1/15to0/15" to="0/15to0/14" fromLane="0" toLane="0"/>
    <connection from="1/15to0/15" to="0/15to1/15" fromLane="0" toLane="0"/>

    <connection from="1/15to1/14" to="1/14to0/14" fromLane="0" toLane="0"/>
    <connection from="1/15to1/14" to="1/14to1/13" fromLane="0" toLane="0"/>
    <connection from="1/15to1/14" to="1/14to2/14" fromLane="0" toLane="0"/>
    <connection from="1/15to1/14" to="1/14to1/15" fromLane="0" toLane="0"/>

    <connection from="1/15to2/15" to="2/15to2/14" fromLane="0" toLane="0"/>
    <connection from="1/15to2/15" to="2/15to3/15" fromLane="0" toLane="0"/>
    <connection from="1/15to2/15" to="2/15totop2" fromLane="0" toLane="0"/>
    <connection from="1/15to2/15" to="2/15to1/15" fromLane="0" toLane="0"/>

    <connection from="1/15totop1" to="top1to1/15" fromLane="0" toLane="0"/>

    <connection from="1/1to0/1" to="0/1to0/2" fromLane="0" toLane="0"/>
    <connection from="1/1to0/1" to="0/1toleft1" fromLane="0" toLane="0"/>
    <connection from="1/1to0/1" to="0/1to0/0" fromLane="0" toLane="0"/>
    <connection from="1/1to0/1" to="0/1to1/1" fromLane="0" toLane="0"/>

    <connection from="1/1to1/0" to="1/0to0/0" fromLane="0" toLane="0"/>
    <connection from="1/1to1/0" to="1/0tobottom1" fromLane="0" toLane="0"/>
    <connection from="1/1to1/0" to="1/0to2/0" fromLane="0" toLane="0"/>
    <connection from="1/1to1/0" to="1/0to1/1" fromLane="0" toLane="0"/>

    <connection from="1/1to1/2" to="1/2to2/2" fromLane="0" toLane="0"/>
    <connection from="1/1to1/2" to="1/2to1/3" fromLane="0" toLane="0"/>
    <connection from="1/1to1/2" to="1/2to0/2" fromLane="0" toLane="0"/>
    <connection from="1/1to1/2" to="1/2to1/1" fromLane="0" toLane="0"/>

    <connection from="1/1to2/1" to="2/1to2/0" fromLane="0" toLane="0"/>
    <connection from="1/1to2/1" to="2/1to3/1" fromLane="0" toLane="0"/>
    <connection from="1/1to2/1" to="2/1to2/2" fromLane="0" toLane="0"/>
    <connection from="1/1to2/1" to="2/1to1/1" fromLane="0" toLane="0"/>

    <connection from="1/2to0/2" to="0/2to0/3" fromLane="0" toLane="0"/>
    <connection from="1/2to0/2" to="0/2toleft2" fromLane="0" toLane="0"/>
    <connection from="1/2to0/2" to="0/2to0/1" fromLane="0" toLane="0"/>
    <connection from="1/2to0/2" to="0/2to1/2" fromLane="0" toLane="0"/>

    <connection from="1/2to1/1" to="1/1to0/1" fromLane="0" toLane="0"/>
    <connection from="1/2to1/1" to="1/1to1/0" fromLane="0" toLane="0"/>
    <connection from="1/2to1/1" to="1/1to2/1" fromLane="0" toLane="0"/>
    <connection from="1/2to1/1" to="1/1to1/2" fromLane="0" toLane="0"/>

    <connection from="1/2to1/3" to="1/3to2/3" fromLane="0" toLane="0"/>
    <connection from="1/2to1/3" to="1/3to1/4" fromLane="0" toLane="0"/>
    <connection from="1/2to1/3" to="1/3to0/3" fromLane="0" toLane="0"/>
    <connection from="1/2to1/3" to="1/3to1/2" fromLane="0" toLane="0"/>

    <connection from="1/2to2/2" to="2/2to2/1" fromLane="0" toLane="0"/>
    <connection from="1/2to2/2" to="2/2to3/2" fromLane="0" toLane="0"/>
    <connection from="1/2to2/2" to="2/2to2/3" fromLane="0" toLane="0"/>
    <connection from="1/2to2/2" to="2/2to1/2" fromLane="0" toLane="0"/>

    <connection from="1/3to0/3" to="0/3to0/4" fromLane="0" toLane="0"/>
    <connection from="1/3to0/3" to="0/3toleft3" fromLane="0" toLane="0"/>
    <connection from="1/3to0/3" to="0/3to0/2" fromLane="0" toLane="0"/>
    <connection from="1/3to0/3" to="0/3to1/3" fromLane="0" toLane="0"/>

    <connection from="1/3to1/2" to="1/2to0/2" fromLane="0" toLane="0"/>
    <connection from="1/3to1/2" to="1/2to1/1" fromLane="0" toLane="0"/>
    <connection from="1/3to1/2" to="1/2to2/2" fromLane="0" toLane="0"/>
    <connection from="1/3to1/2" to="1/2to1/3" fromLane="0" toLane="0"/>

    <connection from="1/3to1/4" to="1/4to2/4" fromLane="0" toLane="0"/>
    <connection from="1/3to1/4" to="1/4to1/5" fromLane="0" toLane="0"/>
    <connection from="1/3to1/4" to="1/4to0/4" fromLane="0" toLane="0"/>
    <connection from="1/3to1/4" to="1/4to1/3" fromLane="0" toLane="0"/>

    <connection from="1/3to2/3" to="2/3to2/2" fromLane="0" toLane="0"/>
    <connection from="1/3to2/3" to="2/3to3/3" fromLane="0" toLane="0"/>
    <connection from="1/3to2/3" to="2/3to2/4" fromLane="0" toLane="0"/>
    <connection from="1/3to2/3" to="2/3to1/3" fromLane="0" toLane="0"/>

    <connection from="1/4to0/4" to="0/4to0/5" fromLane="0" toLane="0"/>
    <connection from="1/4to0/4" to="0/4toleft4" fromLane="0" toLane="0"/>
    <connection from="1/4to0/4" to="0/4to0/3" fromLane="0" toLane="0"/>
    <connection from="1/4to0/4" to="0/4to1/4" fromLane="0" toLane="0"/>

    <connection from="1/4to1/3" to="1/3to0/3" fromLane="0" toLane="0"/>
    <connection from="1/4to1/3" to="1/3to1/2" fromLane="0" toLane="0"/>
    <connection from="1/4to1/3" to="1/3to2/3" fromLane="0" toLane="0"/>
    <connection from="1/4to1/3" to="1/3to1/4" fromLane="0" toLane="0"/>

    <connection from="1/4to1/5" to="1/5to2/5" fromLane="0" toLane="0"/>
    <connection from="1/4to1/5" to="1/5to1/6" fromLane="0" toLane="0"/>
    <connection from="1/4to1/5" to="1/5to0/5" fromLane="0" toLane="0"/>
    <connection from="1/4to1/5" to="1/5to1/4" fromLane="0" toLane="0"/>

    <connection from="1/4to2/4" to="2/4to2/3" fromLane="0" toLane="0"/>
    <connection from="1/4to2/4" to="2/4to3/4" fromLane="0" toLane="0"/>
    <connection from="1/4to2/4" to="2/4to2/5" fromLane="0" toLane="0"/>
    <connection from="1/4to2/4" to="2/4to1/4" fromLane="0" toLane="0"/>

    <connection from="1/5to0/5" to="0/5to0/6" fromLane="0" toLane="0"/>
    <connection from="1/5to0/5" to="0/5toleft5" fromLane="0" toLane="0"/>
    <connection from="1/5to0/5" to="0/5to0/4" fromLane="0" toLane="0"/>
    <connection from="1/5to0/5" to="0/5to1/5" fromLane="0" toLane="0"/>

    <connection from="1/5to1/4" to="1/4to0/4" fromLane="0" toLane="0"/>
    <connection from="1/5to1/4" to="1/4to1/3" fromLane="0" toLane="0"/>
    <connection from="1/5to1/4" to="1/4to2/4" fromLane="0" toLane="0"/>
    <connection from="1/5to1/4" to="1/4to1/5" fromLane="0" toLane="0"/>

    <connection from="1/5to1/6" to="1/6to2/6" fromLane="0" toLane="0"/>
    <connection from="1/5to1/6" to="1/6to1/7" fromLane="0" toLane="0"/>
    <connection from="1/5to1/6" to="1/6to0/6" fromLane="0" toLane="0"/>
    <connection from="1/5to1/6" to="1/6to1/5" fromLane="0" toLane="0"/>

    <connection from="1/5to2/5" to="2/5to2/4" fromLane="0" toLane="0"/>
    <connection from="1/5to2/5" to="2/5to3/5" fromLane="0" toLane="0"/>
    <connection from="1/5to2/5" to="2/5to2/6" fromLane="0" toLane="0"/>