<?xml version="1.0" encoding="UTF-8"?>

<!-- generated on Wed Aug 14 20:27:27 2019 by SUMO duarouter Version 0.27.1
<?xml version="1.0" encoding="UTF-8"?>

<configuration xmlns:xsi="http://www.w3.org/2001/XMLSchema-instance" xsi:noNamespaceSchemaLocation="http://sumo.dlr.de/xsd/duarouterConfiguration.xsd">

    <input>
        <net-file value="grid16EMISSIONS_noBastra_reference_fulltraffic_01.net.xml"/>
        <trip-files value="grid16EMISSIONS_noBastra_reference_fulltraffic_01.trip.xml"/>
    </input>

    <output>
        <output-file value="grid16EMISSIONS_noBastra_reference_fulltraffic_01.routes.xml"/>
    </output>

    <processing>
        <ignore-errors value="true"/>
        <max-alternatives value="10"/>
        <remove-loops value="true"/>
        <repair value="true"/>
        <repair.from value="true"/>
        <repair.to value="true"/>
    </processing>

    <time>
        <begin value="0"/>
        <end value="3600"/>
    </time>

</configuration>
-->

<routes xmlns:xsi="http://www.w3.org/2001/XMLSchema-instance" xsi:noNamespaceSchemaLocation="http://sumo.dlr.de/xsd/routes_file.xsd">
    <vehicle id="110" depart="0.65" departLane="best" departSpeed="0.00" fromTaz="10" toTaz="20">
        <route edges="left6to0/6 0/6to1/6 1/6to2/6 2/6to3/6 3/6to4/6 4/6to5/6 5/6to6/6 6/6to7/6 7/6to8/6 8/6to9/6 9/6to10/6 10/6to11/6 11/6to12/6 12/6to13/6 13/6to14/6 14/6to15/6 15/6toright6"/>
    </vehicle>
    <vehicle id="62" depart="2.59" departLane="best" departSpeed="0.00" fromTaz="10" toTaz="20">
        <route edges="left7to0/7 0/7to1/7 1/7to2/7 2/7to3/7 3/7to4/7 4/7to5/7 5/7to6/7 6/7to7/7 7/7to8/7 8/7to9/7 9/7to10/7 10/7to11/7 11/7to12/7 12/7to13/7 13/7to14/7 14/7to15/7 15/7toright7"/>
    </vehicle>
    <vehicle id="86" depart="3.84" departLane="best" departSpeed="0.00" fromTaz="10" toTaz="20">
        <route edges="left6to0/6 0/6to1/6 1/6to2/6 2/6to3/6 3/6to4/6 4/6to5/6 5/6to6/6 6/6to7/6 7/6to8/6 8/6to9/6 9/6to10/6 10/6to11/6 11/6to12/6 12/6to13/6 13/6to14/6 14/6to15/6 15/6toright6"/>
    </vehicle>
    <vehicle id="44" depart="4.07" departLane="best" departSpeed="0.00" fromTaz="10" toTaz="20">
        <route edges="left8to0/8 0/8to1/8 1/8to2/8 2/8to3/8 3/8to4/8 4/8to5/8 5/8to6/8 6/8to7/8 7/8to8/8 8/8to9/8 9/8to10/8 10/8to11/8 11/8to12/8 12/8to13/8 13/8to14/8 14/8to15/8 15/8toright8"/>
    </vehicle>
    <vehicle id="128" depart="7.89" departLane="best" departSpeed="0.00" fromTaz="10" toTaz="20">
        <route edges="left8to0/8 0/8to1/8 1/8to2/8 2/8to3/8 3/8to4/8 4/8to5/8 5/8to6/8 6/8to7/8 7/8to8/8 8/8to9/8 9/8to10/8 10/8to10/7 10/7to10/6 10/6to11/6 11/6to12/6 12/6to13/6 13/6to14/6 14/6to15/6 15/6toright6"/>
    </vehicle>
    <vehicle id="9" depart="7.91" departLane="best" departSpeed="0.00" fromTaz="10" toTaz="20">
        <route edges="left6to0/6 0/6to1/6 1/6to2/6 2/6to3/6 3/6to4/6 4/6to5/6 5/6to6/6 6/6to7/6 7/6to8/6 8/6to9/6 9/6to10/6 10/6to11/6 11/6to12/6 12/6to13/6 13/6to14/6 14/6to15/6 15/6toright6"/>
    </vehicle>
    <vehicle id="151" depart="8.26" departLane="best" departSpeed="0.00" fromTaz="10" toTaz="20">
        <route edges="left6to0/6 0/6to1/6 1/6to2/6 2/6to3/6 3/6to4/6 4/6to5/6 5/6to6/6 6/6to7/6 7/6to8/6 8/6to9/6 9/6to10/6 10/6to10/7 10/7to10/8 10/8to11/8 11/8to12/8 12/8to13/8 13/8to14/8 14/8to15/8 15/8toright8"/>
    </vehicle>
    <vehicle id="78" depart="9.82" departLane="best" departSpeed="0.00" fromTaz="10" toTaz="20">
        <route edges="left9to0/9 0/9to1/9 1/9to2/9 2/9to3/9 3/9to4/9 4/9to5/9 5/9to6/9 6/9to7/9 7/9to8/9 8/9to9/9 9/9to10/9 10/9to10/8 10/8to10/7 10/7to11/7 11/7to12/7 12/7to13/7 13/7to14/7 14/7to15/7 15/7toright7"/>
    </vehicle>
    <vehicle id="2" depart="12.69" departLane="best" departSpeed="0.00" fromTaz="10" toTaz="20">
        <route edges="left8to0/8 0/8to1/8 1/8to2/8 2/8to3/8 3/8to4/8 4/8to5/8 5/8to6/8 6/8to7/8 7/8to8/8 8/8to9/8 9/8to10/8 10/8to11/8 11/8to12/8 12/8to13/8 13/8to14/8 14/8to15/8 15/8toright8"/>
    </vehicle>
    <vehicle id="174" depart="13.05" departLane="best" departSpeed="0.00" fromTaz="10" toTaz="20">
        <route edges="left7to0/7 0/7to1/7 1/7to2/7 2/7to3/7 3/7to4/7 4/7to5/7 5/7to6/7 6/7to7/7 7/7to8/7 8/7to9/7 9/7to10/7 10/7to10/8 10/8to10/9 10/9to11/9 11/9to12/9 12/9to13/9 13/9to14/9 14/9to15/9 15/9toright9"/>
    </vehicle>
    <vehicle id="41" depart="13.11" departLane="best" departSpeed="0.00" fromTaz="10" toTaz="20">
        <route edges="left9to0/9 0/9to1/9 1/9to2/9 2/9to3/9 3/9to4/9 4/9to5/9 5/9to6/9 6/9to7/9 7/9to8/9 8/9to9/9 9/9to10/9 10/9to10/8 10/8to10/7 10/7to10/6 10/6to11/6 11/6to12/6 12/6to13/6 13/6to14/6 14/6to15/6 15/6toright6"/>
    </vehicle>
    <vehicle id="19" depart="13.47" departLane="best" departSpeed="0.00" fromTaz="10" toTaz="20">
        <route edges="left9to0/9 0/9to1/9 1/9to2/9 2/9to3/9 3/9to4/9 4/9to5/9 5/9to6/9 6/9to7/9 7/9to8/9 8/9to9/9 9/9to10/9 10/9to10/8 10/8to10/7 10/7to10/6 10/6to11/6 11/6to12/6 12/6to13/6 13/6to14/6 14/6to15/6 15/6toright6"/>
    </vehicle>
    <vehicle id="56" depart="17.22" departLane="best" departSpeed="0.00" fromTaz="10" toTaz="20">
        <route edges="left6to0/6 0/6to1/6 1/6to2/6 2/6to3/6 3/6to4/6 4/6to5/6 5/6to6/6 6/6to7/6 7/6to8/6 8/6to9/6 9/6to10/6 10/6to11/6 11/6to12/6 12/6to13/6 13/6to14/6 14/6to15/6 15/6toright6"/>
    </vehicle>
    <vehicle id="115" depart="17.50" departLane="best" departSpeed="0.00" fromTaz="10" toTaz="20">
        <route edges="left7to0/7 0/7to1/7 1/7to2/7 2/7to3/7 3/7to4/7 4/7to5/7 5/7to6/7 6/7to7/7 7/7to8/7 8/7to9/7 9/7to10/7 10/7to10/6 10/6to11/6 11/6to12/6 12/6to13/6 13/6to14/6 14/6to15/6 15/6toright6"/>
    </vehicle>
    <vehicle id="191" depart="17.82" departLane="best" departSpeed="0.00" fromTaz="10" toTaz="20">
        <route edges="left9to0/9 0/9to1/9 1/9to2/9 2/9to3/9 3/9to4/9 4/9to5/9 5/9to6/9 6/9to7/9 7/9to8/9 8/9to9/9 9/9to10/9 10/9to11/9 11/9to12/9 12/9to13/9 13/9to14/9 14/9to15/9 15/9toright9"/>
    </vehicle>
    <vehicle id="10" depart="18.39" departLane="best" departSpeed="0.00" fromTaz="10" toTaz="20">
        <route edges="left9to0/9 0/9to1/9 1/9to2/9 2/9to3/9 3/9to4/9 4/9to5/9 5/9to6/9 6/9to7/9 7/9to8/9 8/9to9/9 9/9to10/9 10/9to10/8 10/8to10/7 10/7to10/6 10/6to11/6 11/6to12/6 12/6to13/6 13/6to14/6 14/6to15/6 15/6toright6"/>
    </vehicle>
    <vehicle id="194" depart="20.56" departLane="best" departSpeed="0.00" fromTaz="10" toTaz="20">
        <route edges="left7to0/7 0/7to1/7 1/7to2/7 2/7to3/7 3/7to4/7 4/7to5/7 5/7to6/7 6/7to7/7 7/7to8/7 8/7to9/7 9/7to10/7 10/7to10/8 10/8to10/9 10/9to11/9 11/9to12/9 12/9to13/9 13/9to14/9 14/9to15/9 15/9toright9"/>
    </vehicle>
    <vehicle id="152" depart="21.75" departLane="best" departSpeed="0.00" fromTaz="10" toTaz="20">
        <route edges="left8to0/8 0/8to1/8 1/8to2/8 2/8to3/8 3/8to4/8 4/8to5/8 5/8to6/8 6/8to7/8 7/8to8/8 8/8to9/8 9/8to10/8 10/8to10/7 10/7to10/6 10/6to11/6 11/6to12/6 12/6to13/6 13/6to14/6 14/6to15/6 15/6toright6"/>
    </vehicle>
    <vehicle id="153" depart="22.63" departLane="best" departSpeed="0.00" fromTaz="10" toTaz="20">
        <route edges="left9to0/9 0/9to1/9 1/9to2/9 2/9to3/9 3/9to4/9 4/9to5/9 5/9to6/9 6/9to7/9 7/9to8/9 8/9to9/9 9/9to10/9 10/9to10/8 10/8to10/7 10/7to10/6 10/6to11/6 11/6to12/6 12/6to13/6 13/6to14/6 14/6to15/6 15/6toright6"/>
    </vehicle>
    <vehicle id="116" depart="22.90" departLane="best" departSpeed="0.00" fromTaz="10" toTaz="20">
        <route edges="left9to0/9 0/9to1/9 1/9to2/9 2/9to3/9 3/9to4/9 4/9to5/9 5/9to6/9 6/9to7/9 7/9to8/9 8/9to9/9 9/9to10/9 10/9to11/9 11/9to12/9 12/9to13/9 13/9to14/9 14/9to15/9 15/9toright9"/>
    </vehicle>
    <vehicle id="165" depart="22.95" departLane="best" departSpeed="0.00" fromTaz="10" toTaz="20">
        <route edges="left9to0/9 0/9to1/9 1/9to2/9 2/9to3/9 3/9to4/9 4/9to5/9 5/9to6/9 6/9to7/9 7/9to8/9 8/9to9/9 9/9to10/9 10/9to10/8 10/8to11/8 11/8to12/8 12/8to13/8 13/8to14/8 14/8to15/8 15/8toright8"/>
    </vehicle>
    <vehicle id="81" depart="25.71" departLane="best" departSpeed="0.00" fromTaz="10" toTaz="20">
        <route edges="left6to0/6 0/6to1/6 1/6to2/6 2/6to3/6 3/6to4/6 4/6to5/6 5/6to6/6 6/6to7/6 7/6to8/6 8/6to9/6 9/6to10/6 10/6to10/7 10/7to11/7 11/7to12/7 12/7to13/7 13/7to14/7 14/7to15/7 15/7toright7"/>
    </vehicle>
    <vehicle id="179" depart="27.31" departLane="best" departSpeed="0.00" fromTaz="10" toTaz="20">
        <route edges="left6to0/6 0/6to1/6 1/6to2/6 2/6to3/6 3/6to4/6 4/6to5/6 5/6to6/6 6/6to7/6 7/6to8/6 8/6to9/6 9/6to10/6 10/6to10/7 10/7to11/7 11/7to12/7 12/7to13/7 13/7to14/7 14/7to15/7 15/7toright7"/>
    </vehicle>
    <vehicle id="63" depart="27.48" departLane="best" departSpeed="0.00" fromTaz="10" toTaz="20">
        <route edges="left6to0/6 0/6to1/6 1/6to2/6 2/6to3/6 3/6to4/6 4/6to5/6 5/6to6/6 6/6to7/6 7/6to8/6 8/6to9/6 9/6to10/6 10/6to11/6 11/6to12/6 12/6to13/6 13/6to14/6 14/6to15/6 15/6toright6"/>
    </vehicle>
    <vehicle id="134" depart="28.69" departLane="best" departSpeed="0.00" fromTaz="10" toTaz="20">
        <route edges="left7to0/7 0/7to1/7 1/7to2/7 2/7to3/7 3/7to4/7 4/7to5/7 5/7to6/7 6/7to7/7 7/7to8/7 8/7to9/7 9/7to10/7 10/7to10/6 10/6to11/6 11/6to12/6 12/6to13/6 13/6to14/6 14/6to15/6 15/6toright6"/>
    </vehicle>
    <vehicle id="193" depart="29.67" departLane="best" departSpeed="0.00" fromTaz="10" toTaz="20">
        <route edges="left9to0/9 0/9to1/9 1/9to2/9 2/9to3/9 3/9to4/9 4/9to5/9 5/9to6/9 6/9to7/9 7/9to8/9 8/9to9/9 9/9to10/9 10/9to11/9 11/9to12/9 12/9to13/9 13/9to14/9 14/9to15/9 15/9toright9"/>
    </vehicle>
    <vehicle id="49" depart="31.30" departLane="best" departSpeed="0.00" fromTaz="10" toTaz="20">
        <route edges="left9to0/9 0/9to1/9 1/9to2/9 2/9to3/9 3/9to4/9 4/9to5/9 5/9to6/9 6/9to7/9 7/9to8/9 8/9to9/9 9/9to10/9 10/9to10/8 10/8to10/7 10/7to11/7 11/7to12/7 12/7to13/7 13/7to14/7 14/7to15/7 15/7toright7"/>
    </vehicle>
    <vehicle id="42" depart="32.80" departLane="best" departSpeed="0.00" fromTaz="10" toTaz="20">
        <route edges="left7to0/7 0/7to1/7 1/7to2/7 2/7to3/7 3/7to4/7 4/7to5/7 5/7to6/7 6/7to7/7 7/7to8/7 8/7to9/7 9/7to10/7 10/7to10/8 10/8to11/8 11/8to12/8 12/8to13/8 13/8to14/8 14/8to15/8 15/8toright8"/>
    </vehicle>
    <vehicle id="149" depart="33.22" departLane="best" departSpeed="0.00" fromTaz="10" toTaz="20">
        <route edges="left7to0/7 0/7to1/7 1/7to2/7 2/7to3/7 3/7to4/7 4/7to5/7 5/7to6/7 6/7to7/7 7/7to8/7 8/7to9/7 9/7to10/7 10/7to10/6 10/6to11/6 11/6to12/6 12/6to13/6 13/6to14/6 14/6to15/6 15/6toright6"/>
    </vehicle>
    <vehicle id="35" depart="35.32" departLane="best" departSpeed="0.00" fromTaz="10" toTaz="20">
        <route edges="left7to0/7 0/7to1/7 1/7to2/7 2/7to3/7 3/7to4/7 4/7to5/7 5/7to6/7 6/7to7/7 7/7to8/7 8/7to9/7 9/7to10/7 10/7to10/8 10/8to11/8 11/8to12/8 12/8to13/8 13/8to14/8 14/8to15/8 15/8toright8"/>
    </vehicle>
    <vehicle id="24" depart="35.86" departLane="best" departSpeed="0.00" fromTaz="10" toTaz="20">
        <route edges="left6to0/6 0/6to1/6 1/6to2/6 2/6to3/6 3/6to4/6 4/6to5/6 5/6to6/6 6/6to7/6 7/6to8/6 8/6to9/6 9/6to10/6 10/6to11/6 11/6to12/6 12/6to13/6 13/6to14/6 14/6to15/6 15/6toright6"/>
    </vehicle>
    <vehicle id="167" depart="36.47" departLane="best" departSpeed="0.00" fromTaz="10" toTaz="20">
        <route edges="left8to0/8 0/8to1/8 1/8to2/8 2/8to3/8 3/8to4/8 4/8to5/8 5/8to6/8 6/8to7/8 7/8to8/8 8/8to9/8 9/8to10/8 10/8to10/7 10/7to10/6 10/6to11/6 11/6to12/6 12/6to13/6 13/6to14/6 14/6to15/6 15/6toright6"/>
    </vehicle>
    <vehicle id="12" depart="37.69" departLane="best" departSpeed="0.00" fromTaz="10" toTaz="20">
        <route edges="left6to0/6 0/6to1/6 1/6to2/6 2/6to3/6 3/6to4/6 4/6to5/6 5/6to6/6 6/6to7/6 7/6to8/6 8/6to9/6 9/6to10/6 10/6to11/6 11/6to12/6 12/6to13/6 13/6to14/6 14/6to15/6 15/6toright6"/>
    </vehicle>
    <vehicle id="101" depart="38.04" departLane="best" departSpeed="0.00" fromTaz="10" toTaz="20">
        <route edges="left6to0/6 0/6to1/6 1/6to2/6 2/6to3/6 3/6to4/6 4/6to5/6 5/6to6/6 6/6to7/6 7/6to8/6 8/6to9/6 9/6to10/6 10/6to10/7 10/7to10/8 10/8to10/9 10/9to11/9 11/9to12/9 12/9to13/9 13/9to14/9 14/9to15/9 15/9toright9"/>
    </vehicle>
    <vehicle id="92" depart="39.99" departLane="best" departSpeed="0.00" fromTaz="10" toTaz="20">
        <route edges="left8to0/8 0/8to1/8 1/8to2/8 2/8to3/8 3/8to4/8 4/8to5/8 5/8to6/8 6/8to7/8 7/8to8/8 8/8to9/8 9/8to10/8 10/8to10/7 10/7to11/7 11/7to12/7 12/7to13/7 13/7to14/7 14/7to15/7 15/7toright7"/>
    </vehicle>
    <vehicle id="99" depart="40.98" departLane="best" departSpeed="0.00" fromTaz="10" toTaz="20">
        <route edges="left8to0/8 0/8to1/8 1/8to2/8 2/8to3/8 3/8to4/8 4/8to5/8 5/8to6/8 6/8to7/8 7/8to8/8 8/8to9/8 9/8to10/8 10/8to10/7 10/7to10/6 10/6to11/6 11/6to12/6 12/6to13/6 13/6to14/6 14/6to15/6 15/6toright6"/>
    </vehicle>
    <vehicle id="96" depart="42.43" departLane="best" departSpeed="0.00" fromTaz="10" toTaz="20">
        <route edges="left7to0/7 0/7to1/7 1/7to2/7 2/7to3/7 3/7to4/7 4/7to5/7 5/7to6/7 6/7to7/7 7/7to8/7 8/7to9/7 9/7to10/7 10/7to10/8 10/8to10/9 10/9to11/9 11/9to12/9 12/9to13/9 13/9to14/9 14/9to15/9 15/9toright9"/>
    </vehicle>
    <vehicle id="157" depart="44.03" departLane="best" departSpeed="0.00" fromTaz="10" toTaz="20">
        <route edges="left9to0/9 0/9to1/9 1/9to2/9 2/9to3/9 3/9to4/9 4/9to5/9 5/9to6/9 6/9to7/9 7/9to8/9 8/9to9/9 9/9to10/9 10/9to11/9 11/9to12/9 12/9to13/9 13/9to14/9 14/9to15/9 15/9toright9"/>
    </vehicle>
    <vehicle id="199" depart="45.60" departLane="best" departSpeed="0.00" fromTaz="10" toTaz="20">
        <route edges="left8to0/8 0/8to1/8 1/8to2/8 2/8to3/8 3/8to4/8 4/8to5/8 5/8to6/8 6/8to7/8 7/8to8/8 8/8to9/8 9/8to10/8 10/8to10/7 10/7to11/7 11/7to12/7 12/7to13/7 13/7to14/7 14/7to15/7 15/7toright7"/>
    </vehicle>
    <vehicle id="43" depart="46.91" departLane="best" departSpeed="0.00" fromTaz="10" toTaz="20">
        <route edges="left8to0/8 0/8to1/8 1/8to2/8 2/8to3/8 3/8to4/8 4/8to5/8 5/8to6/8 6/8to7/8 7/8to8/8 8/8to9/8 9/8to10/8 10/8to10/7 10/7to11/7 11/7to12/7 12/7to13/7 13/7to14/7 14/7to15/7 15/7toright7"/>
    </vehicle>
    <vehicle id="100" depart="47.01" departLane="best" departSpeed="0.00" fromTaz="10" toTaz="20">
        <route edges="left9to0/9 0/9to1/9 1/9to2/9 2/9to3/9 3/9to4/9 4/9to5/9 5/9to6/9 6/9to7/9 7/9to8/9 8/9to9/9 9/9to10/9 10/9to11/9 11/9to12/9 12/9to13/9 13/9to14/9 14/9to15/9 15/9toright9"/>
    </vehicle>
    <vehicle id="125" depart="47.94" departLane="best" departSpeed="0.00" fromTaz="10" toTaz="20">
        <route edges="left9to0/9 0/9to1/9 1/9to2/9 2/9to3/9 3/9to4/9 4/9to5/9 5/9to6/9 6/9to7/9 7/9to8/9 8/9to9/9 9/9to10/9 10/9to10/8 10/8to11/8 11/8to12/8 12/8to13/8 13/8to14/8 14/8to15/8 15/8toright8"/>
    </vehicle>
    <vehicle id="145" depart="49.19" departLane="best" departSpeed="0.00" fromTaz="10" toTaz="20">
        <route edges="left9to0/9 0/9to1/9 1/9to2/9 2/9to3/9 3/9to4/9 4/9to5/9 5/9to6/9 6/9to7/9 7/9to8/9 8/9to9/9 9/9to10/9 10/9to11/9 11/9to12/9 12/9to13/9 13/9to14/9 14/9to15/9 15/9toright9"/>
    </vehicle>
    <vehicle id="184" depart="49.87" departLane="best" departSpeed="0.00" fromTaz="10" toTaz="20">
        <route edges="left7to0/7 0/7to1/7 1/7to2/7 2/7to3/7 3/7to4/7 4/7to5/7 5/7to6/7 6/7to7/7 7/7to8/7 8/7to9/7 9/7to10/7 10/7to11/7 11/7to12/7 12/7to13/7 13/7to14/7 14/7to15/7 15/7toright7"/>
    </vehicle>
    <vehicle id="141" depart="50.22" departLane="best" departSpeed="0.00" fromTaz="10" toTaz="20">
        <route edges="left9to0/9 0/9to1/9 1/9to2/9 2/9to3/9 3/9to4/9 4/9to5/9 5/9to6/9 6/9to7/9 7/9to8/9 8/9to9/9 9/9to10/9 10/9to10/8 10/8to10/7 10/7to10/6 10/6to11/6 11/6to12/6 12/6to13/6 13/6to14/6 14/6to15/6 15/6toright6"/>
    </vehicle>
    <vehicle id="135" depart="53.38" departLane="best" departSpeed="0.00" fromTaz="10" toTaz="20">
        <route edges="left9to0/9 0/9to1/9 1/9to2/9 2/9to3/9 3/9to4/9 4/9to5/9 5/9to6/9 6/9to7/9 7/9to8/9 8/9to9/9 9/9to10/9 10/9to11/9 11/9to12/9 12/9to13/9 13/9to14/9 14/9to15/9 15/9toright9"/>
    </vehicle>
    <vehicle id="88" depart="54.34" departLane="best" departSpeed="0.00" fromTaz="10" toTaz="20">
        <route edges="left9to0/9 0/9to1/9 1/9to2/9 2/9to3/9 3/9to4/9 4/9to5/9 5/9to6/9 6/9to7/9 7/9to8/9 8/9to9/9 9/9to10/9 10/9to10/8 10/8to11/8 11/8to12/8 12/8to13/8 13/8to14/8 14/8to15/8 15/8toright8"/>
    </vehicle>
    <vehicle id="6" depart="55.65" departLane="best" departSpeed="0.00" fromTaz="10" toTaz="20">
        <route edges="left6to0/6 0/6to1/6 1/6to2/6 2/6to3/6 3/6to4/6 4/6to5/6 5/6to6/6 6/6to7/6 7/6to8/6 8/6to9/6 9/6to10/6 10/6to10/7 10/7to10/8 10/8to11/8 11/8to12/8 12/8to13/8 13/8to14/8 14/8to15/8 15/8toright8"/>
    </vehicle>
    <vehicle id="113" depart="57.31" departLane="best" departSpeed="0.00" fromTaz="10" toTaz="20">
        <route edges="left8to0/8 0/8to1/8 1/8to2/8 2/8to3/8 3/8to4/8 4/8to5/8 5/8to6/8 6/8to7/8 7/8to8/8 8/8to9/8 9/8to10/8 10/8to10/7 10/7to10/6 10/6to11/6 11/6to12/6 12/6to13/6 13/6to14/6 14/6to15/6 15/6toright6"/>
    </vehicle>
    <vehicle id="189" depart="58.18" departLane="best" departSpeed="0.00" fromTaz="10" toTaz="20">
        <route edges="left7to0/7 0/7to1/7 1/7to2/7 2/7to3/7 3/7to4/7 4/7to5/7 5/7to6/7 6/7to7/7 7/7to8/7 8/7to9/7 9/7to10/7 10/7to11/7 11/7to12/7 12/7to13/7 13/7to14/7 14/7to15/7 15/7toright7"/>
    </vehicle>
    <vehicle id="172" depart="59.34" departLane="best" departSpeed="0.00" fromTaz="10" toTaz="20">
        <route edges="left6to0/6 0/6to1/6 1/6to2/6 2/6to3/6 3/6to4/6 4/6to5/6 5/6to6/6 6/6to7/6 7/6to8/6 8/6to9/6 9/6to10/6 10/6to11/6 11/6to12/6 12/6to13/6 13/6to14/6 14/6to15/6 15/6toright6"/>
    </vehicle>
    <vehicle id="154" depart="62.10" departLane="best" departSpeed="0.00" fromTaz="10" toTaz="20">
        <route edges="left8to0/8 0/8to1/8 1/8to2/8 2/8to3/8 3/8to4/8 4/8to5/8 5/8to6/8 6/8to7/8 7/8to8/8 8/8to9/8 9/8to10/8 10/8to10/9 10/9to11/9 11/9to12/9 12/9to13/9 13/9to14/9 14/9to15/9 15/9toright9"/>
    </vehicle>
    <vehicle id="73" depart="63.55" departLane="best" departSpeed="0.00" fromTaz="10" toTaz="20">
        <route edges="left6to0/6 0/6to1/6 1/6to2/6 2/6to3/6 3/6to4/6 4/6to5/6 5/6to6/6 6/6to7/6 7/6to8/6 8/6to9/6 9/6to10/6 10/6to10/7 10/7to10/8 10/8to11/8 11/8to12/8 12/8to13/8 13/8to14/8 14/8to15/8 15/8toright8"/>
    </vehicle>
    <vehicle id="144" depart="63.98" departLane="best" departSpeed="0.00" fromTaz="10" toTaz="20">
        <route edges="left8to0/8 0/8to1/8 1/8to2/8 2/8to3/8 3/8to4/8 4/8to5/8 5/8to6/8 6/8to7/8 7/8to8/8 8/8to9/8 9/8to10/8 10/8to11/8 11/8to12/8 12/8to13/8 13/8to14/8 14/8to15/8 15/8toright8"/>
    </vehicle>
    <vehicle id="176" depart="65.72" departLane="best" departSpeed="0.00" fromTaz="10" toTaz="20">
        <route edges="left6to0/6 0/6to1/6 1/6to2/6 2/6to3/6 3/6to4/6 4/6to5/6 5/6to6/6 6/6to7/6 7/6to8/6 8/6to9/6 9/6to10/6 10/6to10/7 10/7to10/8 10/8to11/8 11/8to12/8 12/8to13/8 13/8to14/8 14/8to15/8 15/8toright8"/>
    </vehicle>
    <vehicle id="5" depart="66.58" departLane="best" departSpeed="0.00" fromTaz="10" toTaz="20">
        <route edges="left9to0/9 0/9to1/9 1/9to2/9 2/9to3/9 3/9to4/9 4/9to5/9 5/9to6/9 6/9to7/9 7/9to8/9 8/9to9/9 9/9to10/9 10/9to10/8 10/8to10/7 10/7to11/7 11/7to12/7 12/7to13/7 13/7to14/7 14/7to15/7 15/7toright7"/>
    </vehicle>
    <vehicle id="195" depart="68.88" departLane="best" departSpeed="0.00" fromTaz="10" toTaz="20">
        <route edges="left9to0/9 0/9to1/9 1/9to2/9 2/9to3/9 3/9to4/9 4/9to5/9 5/9to6/9 6/9to7/9 7/9to8/9 8/9to9/9 9/9to10/9 10/9to10/8 10/8to10/7 10/7to10/6 10/6to11/6 11/6to12/6 12/6to13/6 13/6to14/6 14/6to15/6 15/6toright6"/>
    </vehicle>
    <vehicle id="30" depart="69.48" departLane="best" departSpeed="0.00" fromTaz="10" toTaz="20">
        <route edges="left6to0/6 0/6to1/6 1/6to2/6 2/6to3/6 3/6to4/6 4/6to5/6 5/6to6/6 6/6to7/6 7/6to8/6 8/6to9/6 9/6to10/6 10/6to10/7 10/7to11/7 11/7to12/7 12/7to13/7 13/7to14/7 14/7to15/7 15/7toright7"/>
    </vehicle>
    <vehicle id="173" depart="71.76" departLane="best" departSpeed="0.00" fromTaz="10" toTaz="20">
        <route edges="left6to0/6 0/6to1/6 1/6to2/6 2/6to3/6 3/6to4/6 4/6to5/6 5/6to6/6 6/6to7/6 7/6to8/6 8/6to9/6 9/6to10/6 10/6to10/7 10/7to10/8 10/8to11/8 11/8to12/8 12/8to13/8 13/8to14/8 14/8to15/8 15/8toright8"/>
    </vehicle>
    <vehicle id="192" depart="71.88" departLane="best" departSpeed="0.00" fromTaz="10" toTaz="20">
        <route edges="left8to0/8 0/8to1/8 1/8to2/8 2/8to3/8 3/8to4/8 4/8to5/8 5/8to6/8 6/8to7/8 7/8to8/8 8/8to9/8 9/8to10/8 10/8to10/9 10/9to11/9 11/9to12/9 12/9to13/9 13/9to14/9 14/9to15/9 15/9toright9"/>
    </vehicle>
    <vehicle id="94" depart="75.63" departLane="best" departSpeed="0.00" fromTaz="10" toTaz="20">
        <route edges="left8to0/8 0/8to1/8 1/8to2/8 2/8to3/8 3/8to4/8 4/8to5/8 5/8to6/8 6/8to7/8 7/8to8/8 8/8to9/8 9/8to10/8 10/8to10/9 10/9to11/9 11/9to12/9 12/9to13/9 13/9to14/9 14/9to15/9 15/9toright9"/>
    </vehicle>
    <vehicle id="22" depart="77.03" departLane="best" departSpeed="0.00" fromTaz="10" toTaz="20">
        <route edges="left6to0/6 0/6to1/6 1/6to2/6 2/6to3/6 3/6to4/6 4/6to5/6 5/6to6/6 6/6to7/6 7/6to8/6 8/6to9/6 9/6to10/6 10/6to10/7 10/7to10/8 10/8to10/9 10/9to11/9 11/9to12/9 12/9to13/9 13/9to14/9 14/9to15/9 15/9toright9"/>
    </vehicle>
    <vehicle id="23" depart="78.56" departLane="best" departSpeed="0.00" fromTaz="10" toTaz="20">
        <route edges="left7to0/7 0/7to1/7 1/7to2/7 2/7to3/7 3/7to4/7 4/7to5/7 5/7to6/7 6/7to7/7 7/7to8/7 8/7to9/7 9/7to10/7 10/7to10/6 10/6to11/6 11/6to12/6 12/6to13/6 13/6to14/6 14/6to15/6 15/6toright6"/>
    </vehicle>
    <vehicle id="98" depart="78.74" departLane="best" departSpeed="0.00" fromTaz="10" toTaz="20">
        <route edges="left9to0/9 0/9to1/9 1/9to2/9 2/9to3/9 3/9to4/9 4/9to5/9 5/9to6/9 6/9to7/9 7/9to8/9 8/9to9/9 9/9to10/9 10/9to11/9 11/9to12/9 12/9to13/9 13/9to14/9 14/9to15/9 15/9toright9"/>
    </vehicle>
    <vehicle id="143" depart="81.18" departLane="best" departSpeed="0.00" fromTaz="10" toTaz="20">
        <route edges="left7to0/7 0/7to1/7 1/7to2/7 2/7to3/7 3/7to4/7 4/7to5/7 5/7to6/7 6/7to7/7 7/7to8/7 8/7to9/7 9/7to10/7 10/7to10/6 10/6to11/6 11/6to12/6 12/6to13/6 13/6to14/6 14/6to15/6 15/6toright6"/>
    </vehicle>
    <vehicle id="82" depart="81.50" departLane="best" departSpeed="0.00" fromTaz="10" toTaz="20">
        <route edges="left6to0/6 0/6to1/6 1/6to2/6 2/6to3/6 3/6to4/6 4/6to5/6 5/6to6/6 6/6to7/6 7/6to8/6 8/6to9/6 9/6to10/6 10/6to10/7 10/7to10/8 10/8to10/9 10/9to11/9 11/9to12/9 12/9to13/9 13/9to14/9 14/9to15/9 15/9toright9"/>
    </vehicle>
    <vehicle id="114" depart="81.62" departLane="best" departSpeed="0.00" fromTaz="10" toTaz="20">
        <route edges="left7to0/7 0/7to1/7 1/7to2/7 2/7to3/7 3/7to4/7 4/7to5/7 5/7to6/7 6/7to7/7 7/7to8/7 8/7to9/7 9/7to10/7 10/7to10/8 10/8to10/9 10/9to11/9 11/9to12/9 12/9to13/9 13/9to14/9 14/9to15/9 15/9toright9"/>
    </vehicle>
    <vehicle id="58" depart="82.19" departLane="best" departSpeed="0.00" fromTaz="10" toTaz="20">
        <route edges="left7to0/7 0/7to1/7 1/7to2/7 2/7to3/7 3/7to4/7 4/7to5/7 5/7to6/7 6/7to7/7 7/7to8/7 8/7to9/7 9/7to10/7 10/7to10/8 10/8to10/9 10/9to11/9 11/9to12/9 12/9to13/9 13/9to14/9 14/9to15/9 15/9toright9"/>
    </vehicle>
    <vehicle id="186" depart="82.92" departLane="best" departSpeed="0.00" fromTaz="10" toTaz="20">
        <route edges="left7to0/7 0/7to1/7 1/7to2/7 2/7to3/7 3/7to4/7 4/7to5/7 5/7to6/7 6/7to7/7 7/7to8/7 8/7to9/7 9/7to10/7 10/7to10/8 10/8to10/9 10/9to11/9 11/9to12/9 12/9to13/9 13/9to14/9 14/9to15/9 15/9toright9"/>
    </vehicle>
    <vehicle id="17" depart="83.17" departLane="best" departSpeed="0.00" fromTaz="10" toTaz="20">
        <route edges="left9to0/9 0/9to1/9 1/9to2/9 2/9to3/9 3/9to4/9 4/9to5/9 5/9to6/9 6/9to7/9 7/9to8/9 8/9to9/9 9/9to10/9 10/9to11/9 11/9to12/9 12/9to13/9 13/9to14/9 14/9to15/9 15/9toright9"/>
    </vehicle>
    <vehicle id="69" depart="83.30" departLane="best" departSpeed="0.00" fromTaz="10" toTaz="20">
        <route edges="left6to0/6 0/6to1/6 1/6to2/6 2/6to3/6 3/6to4/6 4/6to5/6 5/6to6/6 6/6to7/6 7/6to8/6 8/6to9/6 9/6to10/6 10/6to10/7 10/7to11/7 11/7to12/7 12/7to13/7 13/7to14/7 14/7to15/7 15/7toright7"/>
    </vehicle>
    <vehicle id="146" depart="86.30" departLane="best" departSpeed="0.00" fromTaz="10" toTaz="20">
        <route edges="left8to0/8 0/8to1/8 1/8to2/8 2/8to3/8 3/8to4/8 4/8to5/8 5/8to6/8 6/8to7/8 7/8to8/8 8/8to9/8 9/8to10/8 10/8to11/8 11/8to12/8 12/8to13/8 13/8to14/8 14/8to15/8 15/8toright8"/>
    </vehicle>
    <vehicle id="138" depart="86.58" departLane="best" departSpeed="0.00" fromTaz="10" toTaz="20">
        <route edges="left7to0/7 0/7to1/7 1/7to2/7 2/7to3/7 3/7to4/7 4/7to5/7 5/7to6/7 6/7to7/7 7/7to8/7 8/7to9/7 9/7to10/7 10/7to10/8 10/8to10/9 10/9to11/9 11/9to12/9 12/9to13/9 13/9to14/9 14/9to15/9 15/9toright9"/>
    </vehicle>
    <vehicle id="162" depart="90.75" departLane="best" departSpeed="0.00" fromTaz="10" toTaz="20">
        <route edges="left7to0/7 0/7to1/7 1/7to2/7 2/7to3/7 3/7to4/7 4/7to5/7 5/7to6/7 6/7to7/7 7/7to8/7 8/7to9/7 9/7to10/7 10/7to10/8 10/8to11/8 11/8to12/8 12/8to13/8 13/8to14/8 14/8to15/8 15/8toright8"/>
    </vehicle>
    <vehicle id="168" depart="91.14" departLane="best" departSpeed="0.00" fromTaz="10" toTaz="20">
        <route edges="left8to0/8 0/8to1/8 1/8to2/8 2/8to3/8 3/8to4/8 4/8to5/8 5/8to6/8 6/8to7/8 7/8to8/8 8/8to9/8 9/8to10/8 10/8to10/7 10/7to10/6 10/6to11/6 11/6to12/6 12/6to13/6 13/6to14/6 14/6to15/6 15/6toright6"/>
    </vehicle>
    <vehicle id="80" depart="93.28" departLane="best" departSpeed="0.00" fromTaz="10" toTaz="20">
        <route edges="left6to0/6 0/6to1/6 1/6to2/6 2/6to3/6 3/6to4/6 4/6to5/6 5/6to6/6 6/6to7/6 7/6to8/6 8/6to9/6 9/6to10/6 10/6to11/6 11/6to12/6 12/6to13/6 13/6to14/6 14/6to15/6 15/6toright6"/>
    </vehicle>
    <vehicle id="127" depart="94.50" departLane="best" departSpeed="0.00" fromTaz="10" toTaz="20">
        <route edges="left7to0/7 0/7to1/7 1/7to2/7 2/7to3/7 3/7to4/7 4/7to5/7 5/7to6/7 6/7to7/7 7/7to8/7 8/7to9/7 9/7to10/7 10/7to10/8 10/8to11/8 11/8to12/8 12/8to13/8 13/8to14/8 14/8to15/8 15/8toright8"/>
    </vehicle>
    <vehicle id="161" depart="95.23" departLane="best" departSpeed="0.00" fromTaz="10" toTaz="20">
        <route edges="left9to0/9 0/9to1/9 1/9to2/9 2/9to3/9 3/9to4/9 4/9to5/9 5/9to6/9 6/9to7/9 7/9to8/9 8/9to9/9 9/9to10/9 10/9to10/8 10/8to10/7 10/7to10/6 10/6to11/6 11/6to12/6 12/6to13/6 13/6to14/6 14/6to15/6 15/6toright6"/>
    </vehicle>
    <vehicle id="59" depart="96.69" departLane="best" departSpeed="0.00" fromTaz="10" toTaz="20">
        <route edges="left8to0/8 0/8to1/8 1/8to2/8 2/8to3/8 3/8to4/8 4/8to5/8 5/8to6/8 6/8to7/8 7/8to8/8 8/8to9/8 9/8to10/8 10/8to10/7 10/7to10/6 10/6to11/6 11/6to12/6 12/6to13/6 13/6to14/6 14/6to15/6 15/6toright6"/>
    </vehicle>
    <vehicle id="185" depart="99.53" departLane="best" departSpeed="0.00" fromTaz="10" toTaz="20">
        <route edges="left9to0/9 0/9to1/9 1/9to2/9 2/9to3/9 3/9to4/9 4/9to5/9 5/9to6/9 6/9to7/9 7/9to8/9 8/9to9/9 9/9to10/9 10/9to11/9 11/9to12/9 12/9to13/9 13/9to14/9 14/9to15/9 15/9toright9"/>
    </vehicle>
    <vehicle id="97" depart="100.63" departLane="best" departSpeed="0.00" fromTaz="10" toTaz="20">
        <route edges="left8to0/8 0/8to1/8 1/8to2/8 2/8to3/8 3/8to4/8 4/8to5/8 5/8to6/8 6/8to7/8 7/8to8/8 8/8to9/8 9/8to10/8 10/8to11/8 11/8to12/8 12/8to13/8 13/8to14/8 14/8to15/8 15/8toright8"/>
    </vehicle>
    <vehicle id="105" depart="101.44" departLane="best" departSpeed="0.00" fromTaz="10" toTaz="20">
        <route edges="left8to0/8 0/8to1/8 1/8to2/8 2/8to3/8 3/8to4/8 4/8to5/8 5/8to6/8 6/8to7/8 7/8to8/8 8/8to9/8 9/8to10/8 10/8to11/8 11/8to12/8 12/8to13/8 13/8to14/8 14/8to15/8 15/8toright8"/>
    </vehicle>
    <vehicle id="4" depart="103.99" departLane="best" departSpeed="0.00" fromTaz="10" toTaz="20">
        <route edges="left8to0/8 0/8to1/8 1/8to2/8 2/8to3/8 3/8to4/8 4/8to5/8 5/8to6/8 6/8to7/8 7/8to8/8 8/8to9/8 9/8to10/8 10/8to10/7 10/7to11/7 11/7to12/7 12/7to13/7 13/7to14/7 14/7to15/7 15/7toright7"/>
    </vehicle>
    <vehicle id="36" depart="104.57" departLane="best" departSpeed="0.00" fromTaz="10" toTaz="20">
        <route edges="left7to0/7 0/7to1/7 1/7to2/7 2/7to3/7 3/7to4/7 4/7to5/7 5/7to6/7 6/7to7/7 7/7to8/7 8/7to9/7 9/7to10/7 10/7to10/8 10/8to11/8 11/8to12/8 12/8to13/8 13/8to14/8 14/8to15/8 15/8toright8"/>
    </vehicle>
    <vehicle id="103" depart="106.59" departLane="best" departSpeed="0.00" fromTaz="10" toTaz="20">
        <route edges="left6to0/6 0/6to1/6 1/6to2/6 2/6to3/6 3/6to4/6 4/6to5/6 5/6to6/6 6/6to7/6 7/6to8/6 8/6to9/6 9/6to10/6 10/6to11/6 11/6to12/6 12/6to13/6 13/6to14/6 14/6to15/6 15/6toright6"/>
    </vehicle>
    <vehicle id="48" depart="107.83" departLane="best" departSpeed="0.00" fromTaz="10" toTaz="20">
        <route edges="left9to0/9 0/9to1/9 1/9to2/9 2/9to3/9 3/9to4/9 4/9to5/9 5/9to6/9 6/9to7/9 7/9to8/9 8/9to9/9 9/9to10/9 10/9to10/8 10/8to10/7 10/7to10/6 10/6to11/6 11/6to12/6 12/6to13/6 13/6to14/6 14/6to15/6 15/6toright6"/>
    </vehicle>
    <vehicle id="155" depart="110.17" departLane="best" departSpeed="0.00" fromTaz="10" toTaz="20">
        <route edges="left9to0/9 0/9to1/9 1/9to2/9 2/9to3/9 3/9to4/9 4/9to5/9 5/9to6/9 6/9to7/9 7/9to8/9 8/9to9/9 9/9to10/9 10/9to10/8 10/8to11/8 11/8to12/8 12/8to13/8 13/8to14/8 14/8to15/8 15/8toright8"/>
    </vehicle>
    <vehicle id="132" depart="110.22" departLane="best" departSpeed="0.00" fromTaz="10" toTaz="20">
        <route edges="left6to0/6 0/6to1/6 1/6to2/6 2/6to3/6 3/6to4/6 4/6to5/6 5/6to6/6 6/6to7/6 7/6to8/6 8/6to9/6 9/6to10/6 10/6to11/6 11/6to12/6 12/6to13/6 13/6to14/6 14/6to15/6 15/6toright6"/>
    </vehicle>
    <vehicle id="61" depart="111.33" departLane="best" departSpeed="0.00" fromTaz="10" toTaz="20">
        <route edges="left6to0/6 0/6to1/6 1/6to2/6 2/6to3/6 3/6to4/6 4/6to5/6 5/6to6/6 6/6to7/6 7/6to8/6 8/6to9/6 9/6to10/6 10/6to11/6 11/6to12/6 12/6to13/6 13/6to14/6 14/6to15/6 15/6toright6"/>
    </vehicle>
    <vehicle id="119" depart="114.32" departLane="best" departSpeed="0.00" fromTaz="10" toTaz="20">
        <route edges="left8to0/8 0/8to1/8 1/8to2/8 2/8to3/8 3/8to4/8 4/8to5/8 5/8to6/8 6/8to7/8 7/8to8/8 8/8to9/8 9/8to10/8 10/8to10/9 10/9to11/9 11/9to12/9 12/9to13/9 13/9to14/9 14/9to15/9 15/9toright9"/>