<?xml version="1.0" encoding="UTF-8"?>

<!-- generated on Sun Jan 15 22:41:00 2017 by SUMO duarouter Version 0.27.1
<?xml version="1.0" encoding="UTF-8"?>

<configuration xmlns:xsi="http://www.w3.org/2001/XMLSchema-instance" xsi:noNamespaceSchemaLocation="http://sumo.dlr.de/xsd/duarouterConfiguration.xsd">

    <input>
        <net-file value="radial16_noBastra_XL2_fulltraffic.net.xml"/>
        <trip-files value="radial16_noBastra_XL2_fulltraffic.trip.xml"/>
    </input>

    <output>
        <output-file value="radial16_noBastra_XL2_fulltraffic.routes.xml"/>
    </output>

    <processing>
        <ignore-errors value="true"/>
        <max-alternatives value="10"/>
        <remove-loops value="true"/>
        <repair value="true"/>
        <repair.from value="true"/>
        <repair.to value="true"/>
    </processing>

    <time>
        <begin value="0"/>
        <end value="3600"/>
    </time>

</configuration>
-->

<routes xmlns:xsi="http://www.w3.org/2001/XMLSchema-instance" xsi:noNamespaceSchemaLocation="http://sumo.dlr.de/xsd/routes_file.xsd">
    <vehicle id="2304" depart="0.19" departLane="best" departSpeed="0.00" fromTaz="3" toTaz="2">
        <route edges="9/16to9/15 9/15to9/16"/>
    </vehicle>
    <vehicle id="7297" depart="0.33" departLane="best" departSpeed="0.00" fromTaz="99" toTaz="99">
        <route edges="3/15to2/15 2/15to2/14 2/14to2/13 2/13to2/12 2/12to2/11 2/11to2/10 2/10to2/9 2/9to3/9 3/9to4/9 4/9to5/9 5/9to6/9 6/9to7/9 7/9to8/9 8/9to8/8"/>
    </vehicle>
    <vehicle id="6241" depart="0.36" departLane="best" departSpeed="0.00" fromTaz="99" toTaz="99">
        <route edges="3/16to2/16 2/16to2/15 2/15to2/14 2/14to2/13 2/13to2/12 2/12to2/11 2/11to2/10 2/10to2/9 2/9to2/8 2/8to2/7 2/7to2/6 2/6to2/5 2/5to2/4 2/4to2/3 2/3to3/3 3/3to4/3 4/3to5/3 5/3to6/3"/>
    </vehicle>
    <vehicle id="3126" depart="0.38" departLane="best" departSpeed="0.00" fromTaz="4" toTaz="1">
        <route edges="13/16to13/15 13/15to13/16"/>
    </vehicle>
    <vehicle id="74" depart="0.56" departLane="best" departSpeed="0.00" fromTaz="1" toTaz="4">
        <route edges="5/16to5/15 5/15to5/16"/>
    </vehicle>
    <vehicle id="7255" depart="0.57" departLane="best" departSpeed="0.00" fromTaz="99" toTaz="99">
        <route edges="10/15to10/16 10/16to9/16 9/16to8/16 8/16to7/16 7/16to6/16 6/16to5/16 5/16to4/16 4/16to3/16 3/16to3/15 3/15to3/14 3/14to3/13 3/13to3/12 3/12to3/11 3/11to3/10 3/10to3/9 3/9to3/8 3/8to3/7 3/7to4/7"/>
    </vehicle>
    <vehicle id="65" depart="0.79" departLane="best" departSpeed="0.00" fromTaz="1" toTaz="4">
        <route edges="5/16to5/15 5/15to5/16"/>
    </vehicle>
    <vehicle id="691" depart="0.90" departLane="best" departSpeed="0.00" fromTaz="1" toTaz="4">
        <route edges="5/16to5/15 5/15to5/16"/>
    </vehicle>
    <vehicle id="4775" depart="0.91" departLane="best" departSpeed="0.00" fromTaz="99" toTaz="99">
        <route edges="4/10to4/9 4/9to4/8 4/8to4/7 4/7to4/6 4/6to4/5 4/5to4/4 4/4to4/3 4/3to4/2 4/2to3/2"/>
    </vehicle>
    <vehicle id="7388" depart="0.94" departLane="best" departSpeed="0.00" fromTaz="99" toTaz="99">
        <route edges="7/10to6/10 6/10to5/10 5/10to4/10 4/10to3/10 3/10to2/10 2/10to1/10 1/10to1/9 1/9to1/8 1/8to1/7 1/7to1/6 1/6to1/5 1/5to1/4 1/4to16/4"/>
    </vehicle>
    <vehicle id="8714" depart="0.97" departLane="best" departSpeed="0.00" fromTaz="99" toTaz="99">
        <route edges="12/13to12/12 12/12to11/12 11/12to10/12 10/12to10/13 10/13to10/14 10/14to10/15 10/15to9/15 9/15to8/15"/>
    </vehicle>
    <vehicle id="1649" depart="1.02" departLane="best" departSpeed="0.00" fromTaz="2" toTaz="3">
        <route edges="1/16to1/15 1/15to1/16"/>
    </vehicle>
    <vehicle id="7869" depart="1.03" departLane="best" departSpeed="0.00" fromTaz="99" toTaz="99">
        <route edges="7/5to7/4 7/4to6/4 6/4to5/4 5/4to4/4 4/4to3/4 3/4to3/3 3/3to3/2 3/2to2/2"/>
    </vehicle>
    <vehicle id="6068" depart="1.12" departLane="best" departSpeed="0.00" fromTaz="99" toTaz="99">
        <route edges="7/5to8/5 8/5to9/5 9/5to10/5 10/5to10/6 10/6to10/7 10/7to10/8 10/8to10/9 10/9to11/9"/>
    </vehicle>
    <vehicle id="1951" depart="1.54" departLane="best" departSpeed="0.00" fromTaz="2" toTaz="3">
        <route edges="1/16to1/15 1/15to1/16"/>
    </vehicle>
    <vehicle id="2009" depart="1.59" departLane="best" departSpeed="0.00" fromTaz="3" toTaz="2">
        <route edges="9/16to9/15 9/15to9/16"/>
    </vehicle>
    <vehicle id="3451" depart="1.68" departLane="best" departSpeed="0.00" fromTaz="4" toTaz="1">
        <route edges="13/16to13/15 13/15to13/16"/>
    </vehicle>
    <vehicle id="145" depart="1.83" departLane="best" departSpeed="0.00" fromTaz="1" toTaz="4">
        <route edges="5/16to5/15 5/15to5/16"/>
    </vehicle>
    <vehicle id="4970" depart="1.92" departLane="best" departSpeed="0.00" fromTaz="99" toTaz="99">
        <route edges="14/1to13/1 13/1to13/2 13/2to13/3 13/3to13/4 13/4to13/5 13/5to13/6 13/6to13/7 13/7to13/8 13/8to13/9 13/9to13/10 13/10to13/11 13/11to13/12 13/12to13/13 13/13to13/14 13/14to13/15 13/15to13/16 13/16to14/16 14/16to15/16"/>
    </vehicle>
    <vehicle id="5131" depart="2.01" departLane="best" departSpeed="0.00" fromTaz="99" toTaz="99">
        <route edges="9/9to10/9 10/9to10/8 10/8to10/7 10/7to10/6 10/6to10/5 10/5to10/4 10/4to10/3 10/3to11/3"/>
    </vehicle>
    <vehicle id="4525" depart="2.54" departLane="best" departSpeed="0.00" fromTaz="99" toTaz="99">
        <route edges="4/9to4/8 4/8to4/7 4/7to4/6 4/6to4/5 4/5to5/5 5/5to5/6"/>
    </vehicle>
    <vehicle id="8098" depart="2.56" departLane="best" departSpeed="0.00" fromTaz="99" toTaz="99">
        <route edges="9/12to9/13 9/13to10/13 10/13to10/14 10/14to10/15 10/15to11/15 11/15to12/15 12/15to12/14"/>
    </vehicle>
    <vehicle id="4855" depart="2.66" departLane="best" departSpeed="0.00" fromTaz="99" toTaz="99">
        <route edges="8/11to8/10 8/10to8/9 8/9to8/8"/>
    </vehicle>
    <vehicle id="7144" depart="2.68" departLane="best" departSpeed="0.00" fromTaz="99" toTaz="99">
        <route edges="16/9to1/9 1/9to1/10 1/10to2/10 2/10to3/10 3/10to4/10 4/10to5/10 5/10to6/10 6/10to7/10 7/10to8/10 8/10to8/9"/>
    </vehicle>
    <vehicle id="1514" depart="2.75" departLane="best" departSpeed="0.00" fromTaz="2" toTaz="3">
        <route edges="1/16to1/15 1/15to1/16"/>
    </vehicle>
    <vehicle id="6575" depart="2.79" departLane="best" departSpeed="0.00" fromTaz="99" toTaz="99">
        <route edges="14/12to15/12 15/12to16/12 16/12to1/12 1/12to2/12 2/12to3/12 3/12to4/12 4/12to5/12 5/12to6/12 6/12to7/12 7/12to7/11"/>
    </vehicle>
    <vehicle id="293" depart="2.83" departLane="best" departSpeed="0.00" fromTaz="1" toTaz="4">
        <route edges="5/16to5/15 5/15to5/16"/>
    </vehicle>
    <vehicle id="8883" depart="2.86" departLane="best" departSpeed="0.00" fromTaz="99" toTaz="99">
        <route edges="4/10to4/9 4/9to4/8 4/8to5/8 5/8to6/8 6/8to7/8 7/8to7/7"/>
    </vehicle>
    <vehicle id="8223" depart="3.00" departLane="best" departSpeed="0.00" fromTaz="99" toTaz="99">
        <route edges="2/4to2/3 2/3to2/2 2/2to3/2 3/2to4/2 4/2to5/2 5/2to6/2 6/2to7/2 7/2to8/2 8/2to8/3"/>
    </vehicle>
    <vehicle id="752" depart="3.14" departLane="best" departSpeed="0.00" fromTaz="1" toTaz="4">
        <route edges="5/16to5/15 5/15to5/16"/>
    </vehicle>
    <vehicle id="8643" depart="3.21" departLane="best" departSpeed="0.00" fromTaz="99" toTaz="99">
        <route edges="13/16to12/16 12/16to11/16 11/16to10/16 10/16to9/16 9/16to8/16 8/16to7/16 7/16to6/16 6/16to6/15 6/15to6/14 6/14to6/13 6/13to6/12 6/12to6/11 6/11to6/10 6/10to6/9 6/9to6/8 6/8to6/7 6/7to6/6 6/6to5/6"/>
    </vehicle>
    <vehicle id="5460" depart="3.28" departLane="best" departSpeed="0.00" fromTaz="99" toTaz="99">
        <route edges="12/9to12/8 12/8to12/7 12/7to12/6 12/6to12/5"/>
    </vehicle>
    <vehicle id="8091" depart="3.42" departLane="best" departSpeed="0.00" fromTaz="99" toTaz="99">
        <route edges="2/13to2/12 2/12to2/11 2/11to2/10 2/10to2/9 2/9to2/8 2/8to2/7 2/7to2/6 2/6to2/5 2/5to2/4 2/4to3/4 3/4to4/4 4/4to5/4 5/4to6/4 6/4to7/4"/>
    </vehicle>
    <vehicle id="2653" depart="3.46" departLane="best" departSpeed="0.00" fromTaz="3" toTaz="2">
        <route edges="9/16to9/15 9/15to9/16"/>
    </vehicle>
    <vehicle id="6457" depart="3.55" departLane="best" departSpeed="0.00" fromTaz="99" toTaz="99">
        <route edges="2/5to1/5 1/5to16/5 16/5to15/5 15/5to14/5 14/5to14/4 14/4to14/3 14/3to14/2 14/2to14/1 14/1to13/1"/>
    </vehicle>
    <vehicle id="8618" depart="3.61" departLane="best" departSpeed="0.00" fromTaz="99" toTaz="99">
        <route edges="3/9to3/8 3/8to2/8 2/8to1/8 1/8to1/9 1/9to1/10 1/10to1/11 1/11to1/12 1/12to1/13"/>
    </vehicle>
    <vehicle id="8770" depart="3.85" departLane="best" departSpeed="0.00" fromTaz="99" toTaz="99">
        <route edges="15/6to15/7 15/7to16/7 16/7to1/7 1/7to1/8 1/8to1/9 1/9to1/10 1/10to1/11 1/11to1/12 1/12to1/13 1/13to2/13 2/13to3/13 3/13to4/13 4/13to4/14"/>
    </vehicle>
    <vehicle id="4514" depart="3.88" departLane="best" departSpeed="0.00" fromTaz="99" toTaz="99">
        <route edges="4/9to3/9 3/9to2/9 2/9to1/9 1/9to1/8 1/8to1/7 1/7to1/6 1/6to1/5 1/5to1/4 1/4to1/3 1/3to1/2 1/2to1/1"/>
    </vehicle>
    <vehicle id="1456" depart="3.98" departLane="best" departSpeed="0.00" fromTaz="2" toTaz="3">
        <route edges="1/16to1/15 1/15to1/16"/>
    </vehicle>
    <vehicle id="8025" depart="4.04" departLane="best" departSpeed="0.00" fromTaz="99" toTaz="99">
        <route edges="7/4to8/4 8/4to9/4 9/4to10/4 10/4to10/5 10/5to10/6 10/6to10/7 10/7to10/8 10/8to10/9 10/9to10/10 10/10to10/11 10/11to10/12 10/12to10/13 10/13to10/14 10/14to11/14 11/14to12/14 12/14to12/13"/>
    </vehicle>
    <vehicle id="8971" depart="4.11" departLane="best" departSpeed="0.00" fromTaz="99" toTaz="99">
        <route edges="10/12to10/11 10/11to10/10 10/10to10/9 10/9to10/8 10/8to10/7 10/7to10/6 10/6to10/5 10/5to10/4 10/4to10/3 10/3to11/3"/>
    </vehicle>
    <vehicle id="5592" depart="4.19" departLane="best" departSpeed="0.00" fromTaz="99" toTaz="99">
        <route edges="9/2to8/2 8/2to7/2 7/2to6/2 6/2to5/2 5/2to4/2 4/2to3/2 3/2to3/3 3/3to3/4 3/4to3/5 3/5to3/6 3/6to3/7 3/7to3/8 3/8to3/9 3/9to4/9"/>
    </vehicle>
    <vehicle id="3206" depart="4.19" departLane="best" departSpeed="0.00" fromTaz="4" toTaz="1">
        <route edges="13/16to13/15 13/15to13/16"/>
    </vehicle>
    <vehicle id="8606" depart="4.22" departLane="best" departSpeed="0.00" fromTaz="99" toTaz="99">
        <route edges="2/16to1/16 1/16to16/16 16/16to15/16 15/16to14/16 14/16to14/15 14/15to15/15"/>
    </vehicle>
    <vehicle id="3714" depart="4.32" departLane="best" departSpeed="0.00" fromTaz="4" toTaz="1">
        <route edges="13/16to13/15 13/15to13/16"/>
    </vehicle>
    <vehicle id="6336" depart="4.38" departLane="best" departSpeed="0.00" fromTaz="99" toTaz="99">
        <route edges="4/10to4/9 4/9to3/9 3/9to2/9 2/9to1/9 1/9to16/9 16/9to15/9 15/9to15/8 15/8to16/8"/>
    </vehicle>
    <vehicle id="5646" depart="4.51" departLane="best" departSpeed="0.00" fromTaz="99" toTaz="99">
        <route edges="10/8to9/8 9/8to8/8 8/8to7/8 7/8to6/8 6/8to6/9 6/9to6/10 6/10to6/11 6/11to6/12 6/12to6/13 6/13to7/13"/>
    </vehicle>
    <vehicle id="4904" depart="4.69" departLane="best" departSpeed="0.00" fromTaz="99" toTaz="99">
        <route edges="9/9to9/8 9/8to10/8 10/8to11/8 11/8to12/8 12/8to13/8 13/8to13/7"/>
    </vehicle>
    <vehicle id="5602" depart="4.71" departLane="best" departSpeed="0.00" fromTaz="99" toTaz="99">
        <route edges="12/3to11/3 11/3to10/3 10/3to10/4 10/4to10/5 10/5to10/6 10/6to10/7 10/7to10/8 10/8to9/8"/>
    </vehicle>
    <vehicle id="539" depart="4.77" departLane="best" departSpeed="0.00" fromTaz="1" toTaz="4">
        <route edges="5/16to5/15 5/15to5/16"/>
    </vehicle>
    <vehicle id="4040" depart="4.80" departLane="best" departSpeed="0.00" fromTaz="99" toTaz="99">
        <route edges="7/11to6/11 6/11to6/10 6/10to7/10 7/10to8/10 8/10to9/10 9/10to9/9"/>
    </vehicle>
    <vehicle id="4481" depart="5.03" departLane="best" departSpeed="0.00" fromTaz="99" toTaz="99">
        <route edges="7/7to8/7 8/7to9/7 9/7to10/7 10/7to10/6 10/6to10/5 10/5to11/5"/>
    </vehicle>
    <vehicle id="772" depart="5.27" departLane="best" departSpeed="0.00" fromTaz="1" toTaz="4">
        <route edges="5/16to5/15 5/15to5/16"/>
    </vehicle>
    <vehicle id="2240" depart="5.34" departLane="best" departSpeed="0.00" fromTaz="3" toTaz="2">
        <route edges="9/16to9/15 9/15to9/16"/>
    </vehicle>
    <vehicle id="2894" depart="5.67" departLane="best" departSpeed="0.00" fromTaz="3" toTaz="2">
        <route edges="9/16to9/15 9/15to9/16"/>
    </vehicle>
    <vehicle id="4374" depart="5.93" departLane="best" departSpeed="0.00" fromTaz="99" toTaz="99">
        <route edges="12/2to12/3 12/3to12/4 12/4to12/5 12/5to12/6 12/6to12/7 12/7to12/8 12/8to12/9 12/9to12/10 12/10to13/10 13/10to14/10 14/10to14/9"/>
    </vehicle>
    <vehicle id="4705" depart="6.04" departLane="best" departSpeed="0.00" fromTaz="99" toTaz="99">
        <route edges="7/10to6/10 6/10to6/9 6/9to7/9 7/9to8/9 8/9to9/9 9/9to9/10"/>
    </vehicle>
    <vehicle id="6532" depart="6.29" departLane="best" departSpeed="0.00" fromTaz="99" toTaz="99">
        <route edges="2/9to1/9 1/9to16/9 16/9to15/9 15/9to15/8 15/8to15/7 15/7to15/6 15/6to15/5 15/5to15/4 15/4to15/3 15/3to15/2 15/2to16/2"/>
    </vehicle>
    <vehicle id="1929" depart="6.35" departLane="best" departSpeed="0.00" fromTaz="2" toTaz="3">
        <route edges="1/16to1/15 1/15to1/16"/>
    </vehicle>
    <vehicle id="6209" depart="6.68" departLane="best" departSpeed="0.00" fromTaz="99" toTaz="99">
        <route edges="3/4to2/4 2/4to2/3 2/3to2/2 2/2to2/1 2/1to3/1 3/1to4/1 4/1to5/1 5/1to6/1 6/1to7/1 7/1to8/1"/>
    </vehicle>
    <vehicle id="942" depart="6.74" departLane="best" departSpeed="0.00" fromTaz="1" toTaz="4">
        <route edges="5/16to5/15 5/15to5/16"/>
    </vehicle>
    <vehicle id="5256" depart="7.11" departLane="best" departSpeed="0.00" fromTaz="99" toTaz="99">
        <route edges="8/12to9/12 9/12to10/12 10/12to10/11 10/11to10/10 10/10to10/9 10/9to10/8 10/8to10/7 10/7to10/6 10/6to10/5 10/5to10/4 10/4to11/4 11/4to12/4 12/4to13/4 13/4to14/4 14/4to15/4"/>
    </vehicle>
    <vehicle id="4914" depart="7.22" departLane="best" departSpeed="0.00" fromTaz="99" toTaz="99">
        <route edges="2/14to2/15 2/15to1/15 1/15to16/15 16/15to15/15 15/15to15/14 15/14to15/13 15/13to15/12 15/12to15/11"/>
    </vehicle>
    <vehicle id="8187" depart="7.28" departLane="best" departSpeed="0.00" fromTaz="99" toTaz="99">
        <route edges="12/15to11/15 11/15to10/15 10/15to9/15 9/15to8/15 8/15to8/14 8/14to8/13"/>
    </vehicle>
    <vehicle id="559" depart="7.29" departLane="best" departSpeed="0.00" fromTaz="1" toTaz="4">
        <route edges="5/16to5/15 5/15to5/16"/>
    </vehicle>
    <vehicle id="2794" depart="7.37" departLane="best" departSpeed="0.00" fromTaz="3" toTaz="2">
        <route edges="9/16to9/15 9/15to9/16"/>
    </vehicle>
    <vehicle id="8980" depart="7.48" departLane="best" departSpeed="0.00" fromTaz="99" toTaz="99">
        <route edges="1/1to16/1 16/1to15/1 15/1to14/1 14/1to13/1 13/1to12/1 12/1to11/1 11/1to11/2 11/2to11/3 11/3to11/4 11/4to12/4"/>
    </vehicle>
    <vehicle id="2934" depart="7.67" departLane="best" departSpeed="0.00" fromTaz="3" toTaz="2">
        <route edges="9/16to9/15 9/15to9/16"/>
    </vehicle>
    <vehicle id="8996" depart="7.73" departLane="best" departSpeed="0.00" fromTaz="99" toTaz="99">
        <route edges="9/4to9/5 9/5to10/5 10/5to10/6 10/6to10/7 10/7to10/8 10/8to11/8 11/8to12/8 12/8to13/8 13/8to14/8"/>
    </vehicle>
    <vehicle id="4591" depart="7.93" departLane="best" departSpeed="0.00" fromTaz="99" toTaz="99">
        <route edges="8/12to8/11 8/11to7/11 7/11to6/11 6/11to5/11 5/11to4/11 4/11to4/12"/>
    </vehicle>
    <vehicle id="3907" depart="7.99" departLane="best" departSpeed="0.00" fromTaz="4" toTaz="1">
        <route edges="13/16to13/15 13/15to13/16"/>
    </vehicle>
    <vehicle id="2446" depart="8.03" departLane="best" departSpeed="0.00" fromTaz="3" toTaz="2">
        <route edges="9/16to9/15 9/15to9/16"/>
    </vehicle>
    <vehicle id="1711" depart="8.39" departLane="best" departSpeed="0.00" fromTaz="2" toTaz="3">
        <route edges="1/16to1/15 1/15to1/16"/>
    </vehicle>
    <vehicle id="4224" depart="8.54" departLane="best" departSpeed="0.00" fromTaz="99" toTaz="99">
        <route edges="9/2to8/2 8/2to8/3 8/3to8/4 8/4to9/4 9/4to9/5"/>
    </vehicle>
    <vehicle id="2576" depart="8.64" departLane="best" departSpeed="0.00" fromTaz="3" toTaz="2">
        <route edges="9/16to9/15 9/15to9/16"/>
    </vehicle>
    <vehicle id="6512" depart="8.65" departLane="best" departSpeed="0.00" fromTaz="99" toTaz="99">
        <route edges="3/3to2/3 2/3to1/3 1/3to16/3 16/3to15/3 15/3to14/3"/>
    </vehicle>
    <vehicle id="4304" depart="8.70" departLane="best" departSpeed="0.00" fromTaz="99" toTaz="99">
        <route edges="2/9to2/10 2/10to1/10 1/10to16/10 16/10to15/10 15/10to14/10 14/10to13/10 13/10to12/10 12/10to12/11 12/11to12/12 12/12to12/13 12/13to12/14 12/14to12/15"/>
    </vehicle>
    <vehicle id="5977" depart="8.97" departLane="best" departSpeed="0.00" fromTaz="99" toTaz="99">
        <route edges="4/6to4/7 4/7to4/8 4/8to4/9 4/9to4/10 4/10to5/10 5/10to6/10 6/10to7/10 7/10to8/10"/>
    </vehicle>
    <vehicle id="3748" depart="8.99" departLane="best" departSpeed="0.00" fromTaz="4" toTaz="1">
        <route edges="13/16to13/15 13/15to13/16"/>
    </vehicle>
    <vehicle id="3524" depart="9.25" departLane="best" departSpeed="0.00" fromTaz="4" toTaz="1">
        <route edges="13/16to13/15 13/15to13/16"/>
    </vehicle>
    <vehicle id="1914" depart="9.34" departLane="best" departSpeed="0.00" fromTaz="2" toTaz="3">
        <route edges="1/16to1/15 1/15to1/16"/>
    </vehicle>
    <vehicle id="7068" depart="9.39" departLane="best" departSpeed="0.00" fromTaz="99" toTaz="99">
        <route edges="13/16to14/16 14/16to15/16 15/16to16/16 16/16to1/16 1/16to1/15 1/15to1/14 1/14to1/13 1/13to1/12 1/12to1/11 1/11to1/10 1/10to1/9 1/9to1/8 1/8to1/7 1/7to1/6 1/6to2/6 2/6to3/6 3/6to4/6 4/6to5/6 5/6to5/5"/>
    </vehicle>
    <vehicle id="3382" depart="9.43" departLane="best" departSpeed="0.00" fromTaz="4" toTaz="1">
        <route edges="13/16to13/15 13/15to13/16"/>
    </vehicle>
    <vehicle id="1093" depart="9.53" departLane="best" departSpeed="0.00" fromTaz="2" toTaz="3">
        <route edges="1/16to1/15 1/15to1/16"/>
    </vehicle>
    <vehicle id="1799" depart="10.16" departLane="best" departSpeed="0.00" fromTaz="2" toTaz="3">
        <route edges="1/16to1/15 1/15to1/16"/>
    </vehicle>
    <vehicle id="4076" depart="10.47" departLane="best" departSpeed="0.00" fromTaz="99" toTaz="99">
        <route edges="10/15to9/15 9/15to8/15 8/15to7/15 7/15to6/15 6/15to5/15 5/15to4/15 4/15to3/15 3/15to2/15 2/15to2/14 2/14to2/13 2/13to2/12 2/12to2/11 2/11to2/10 2/10to2/9 2/9to2/8 2/8to2/7 2/7to2/6 2/6to3/6"/>
    </vehicle>
    <vehicle id="6397" depart="10.59" departLane="best" departSpeed="0.00" fromTaz="99" toTaz="99">
        <route edges="4/6to4/7 4/7to4/8 4/8to4/9 4/9to4/10 4/10to5/10 5/10to6/10 6/10to7/10 7/10to8/10 8/10to9/10 9/10to9/9"/>
    </vehicle>
    <vehicle id="3544" depart="10.84" departLane="best" departSpeed="0.00" fromTaz="4" toTaz="1">
        <route edges="13/16to13/15 13/15to13/16"/>
    </vehicle>
    <vehicle id="4738" depart="11.29" departLane="best" departSpeed="0.00" fromTaz="99" toTaz="99">
        <route edges="8/10to8/9 8/9to7/9 7/9to6/9 6/9to5/9 5/9to4/9 4/9to3/9 3/9to2/9 2/9to1/9 1/9to1/8 1/8to1/7 1/7to1/6 1/6to1/5 1/5to16/5"/>
    </vehicle>
    <vehicle id="3159" depart="11.42" departLane="best" departSpeed="0.00" fromTaz="4" toTaz="1">
        <route edges="13/16to13/15 13/15to13/16"/>
    </vehicle>
    <vehicle id="2072" depart="11.45" departLane="best" departSpeed="0.00" fromTaz="3" toTaz="2">
        <route edges="9/16to9/15 9/15to9/16"/>
    </vehicle>
    <vehicle id="3698" depart="11.53" departLane="best" departSpeed="0.00" fromTaz="4" toTaz="1">
        <route edges="13/16to13/15 13/15to13/16"/>
    </vehicle>
    <vehicle id="4406" depart="11.71" departLane="best" departSpeed="0.00" fromTaz="99" toTaz="99">
        <route edges="9/8to9/7 9/7to8/7 8/7to8/6 8/6to7/6"/>
    </vehicle>
    <vehicle id="6759" depart="11.86" departLane="best" departSpeed="0.00" fromTaz="99" toTaz="99">
        <route edges="11/1to12/1 12/1to12/2 12/2to12/3 12/3to12/4 12/4to12/5 12/5to12/6 12/6to12/7 12/7to12/8 12/8to12/9 12/9to12/10 12/10to12/11 12/11to12/12 12/12to12/13 12/13to13/13 13/13to14/13 14/13to15/13"/>
    </vehicle>
    <vehicle id="2578" depart="11.87" departLane="best" departSpeed="0.00" fromTaz="3" toTaz="2">
        <route edges="9/16to9/15 9/15to9/16"/>
    </vehicle>
    <vehicle id="4432" depart="11.92" departLane="best" departSpeed="0.00" fromTaz="99" toTaz="99">
        <route edges="12/12to11/12 11/12to10/12 10/12to10/11 10/11to10/10 10/10to10/9 10/9to10/8 10/8to10/7 10/7to10/6 10/6to10/5 10/5to10/4 10/4to9/4 9/4to9/3"/>
    </vehicle>
    <vehicle id="3551" depart="12.02" departLane="best" departSpeed="0.00" fromTaz="4" toTaz="1">
        <route edges="13/16to13/15 13/15to13/16"/>
    </vehicle>
    <vehicle id="6239" depart="12.29" departLane="best" departSpeed="0.00" fromTaz="99" toTaz="99">
        <route edges="14/9to14/10 14/10to15/10 15/10to16/10 16/10to1/10 1/10to1/9 1/9to1/8 1/8to2/8 2/8to3/8 3/8to3/7"/>
    </vehicle>
    <vehicle id="5426" depart="12.30" departLane="best" departSpeed="0.00" fromTaz="99" toTaz="99">
        <route edges="7/10to7/9 7/9to6/9 6/9to5/9 5/9to4/9 4/9to4/8 4/8to4/7 4/7to4/6 4/6to3/6"/>
    </vehicle>
    <vehicle id="736" depart="12.32" departLane="best" departSpeed="0.00" fromTaz="1" toTaz="4">
        <route edges="5/16to5/15 5/15to5/16"/>
    </vehicle>
    <vehicle id="7905" depart="12.43" departLane="best" departSpeed="0.00" fromTaz="99" toTaz="99">
        <route edges="12/11to11/11 11/11to10/11 10/11to9/11 9/11to8/11 8/11to7/11 7/11to6/11 6/11to6/12 6/12to6/13 6/13to6/14 6/14to6/15"/>
    </vehicle>
    <vehicle id="2769" depart="12.48" departLane="best" departSpeed="0.00" fromTaz="3" toTaz="2">
        <route edges="9/16to9/15 9/15to9/16"/>
    </vehicle>
    <vehicle id="4402" depart="12.59" departLane="best" departSpeed="0.00" fromTaz="99" toTaz="99">
        <route edges="8/15to9/15 9/15to10/15 10/15to10/14 10/14to10/13 10/13to10/12 10/12to10/11 10/11to10/10 10/10to10/9 10/9to11/9 11/9to12/9 12/9to13/9 13/9to14/9 14/9to15/9 15/9to16/9"/>
    </vehicle>
    <vehicle id="2228" depart="12.84" departLane="best" departSpeed="0.00" fromTaz="3" toTaz="2">
        <route edges="9/16to9/15 9/15to9/16"/>
    </vehicle>
    <vehicle id="142" depart="12.90" departLane="best" departSpeed="0.00" fromTaz="1" toTaz="4">
        <route edges="5/16to5/15 5/15to5/16"/>
    </vehicle>
    <vehicle id="2586" depart="13.02" departLane="best" departSpeed="0.00" fromTaz="3" toTaz="2">
        <route edges="9/16to9/15 9/15to9/16"/>
    </vehicle>
    <vehicle id="4502" depart="13.34" departLane="best" departSpeed="0.00" fromTaz="99" toTaz="99">
        <route edges="11/15to11/14 11/14to12/14 12/14to13/14 13/14to14/14 14/14to15/14 15/14to16/14 16/14to1/14 1/14to1/13 1/13to1/12 1/12to1/11 1/11to1/10 1/10to1/9 1/9to1/8 1/8to1/7 1/7to1/6 1/6to1/5 1/5to1/4 1/4to1/3 1/3to2/3 2/3to3/3 3/3to3/4"/>
    </vehicle>
    <vehicle id="4798" depart="13.40" departLane="best" departSpeed="0.00" fromTaz="99" toTaz="99">
        <route edges="8/2to9/2 9/2to10/2 10/2to10/3 10/3to10/4 10/4to10/5 10/5to10/6 10/6to10/7 10/7to10/8 10/8to10/9 10/9to10/10 10/10to10/11 10/11to10/12 10/12to11/12 11/12to12/12 12/12to13/12 13/12to14/12 14/12to15/12"/>
    </vehicle>
    <vehicle id="6713" depart="13.47" departLane="best" departSpeed="0.00" fromTaz="99" toTaz="99">
        <route edges="15/6to14/6 14/6to13/6 13/6to12/6 12/6to11/6 11/6to10/6 10/6to9/6 9/6to8/6 8/6to8/7 8/7to8/8 8/8to7/8"/>
    </vehicle>
    <vehicle id="2022" depart="13.61" departLane="best" departSpeed="0.00" fromTaz="3" toTaz="2">
        <route edges="9/16to9/15 9/15to9/16"/>
    </vehicle>
    <vehicle id="6048" depart="13.97" departLane="best" departSpeed="0.00" fromTaz="99" toTaz="99">
        <route edges="15/5to15/6 15/6to16/6 16/6to1/6 1/6to1/5 1/5to1/4"/>
    </vehicle>
    <vehicle id="2039" depart="14.02" departLane="best" departSpeed="0.00" fromTaz="3" toTaz="2">
        <route edges="9/16to9/15 9/15to9/16"/>
    </vehicle>
    <vehicle id="8581" depart="14.13" departLane="best" departSpeed="0.00" fromTaz="99" toTaz="99">
        <route edges="9/2to10/2 10/2to10/3 10/3to10/4 10/4to10/5 10/5to10/6 10/6to10/7 10/7to10/8 10/8to10/9 10/9to10/10"/>
    </vehicle>
    <vehicle id="7971" depart="14.21" departLane="best" departSpeed="0.00" fromTaz="99" toTaz="99">
        <route edges="4/15to3/15 3/15to3/14 3/14to3/13 3/13to3/12 3/12to3/11 3/11to3/10 3/10to3/9 3/9to3/8 3/8to3/7 3/7to3/6 3/6to3/5 3/5to4/5 4/5to5/5"/>
    </vehicle>
    <vehicle id="2013" depart="14.30" departLane="best" departSpeed="0.00" fromTaz="3" toTaz="2">
        <route edges="9/16to9/15 9/15to9/16"/>
    </vehicle>
    <vehicle id="6854" depart="14.87" departLane="best" departSpeed="0.00" fromTaz="99" toTaz="99">
        <route edges="12/13to12/14 12/14to13/14"/>
    </vehicle>
    <vehicle id="4505" depart="14.99" departLane="best" departSpeed="0.00" fromTaz="99" toTaz="99">
        <route edges="13/3to12/3 12/3to12/4 12/4to12/5 12/5to12/6 12/6to12/7 12/7to12/8 12/8to12/9 12/9to12/10 12/10to12/11 12/11to12/12 12/12to12/13 12/13to12/14 12/14to12/15 12/15to11/15"/>
    </vehicle>
    <vehicle id="6310" depart="15.04" departLane="best" departSpeed="0.00" fromTaz="99" toTaz="99">
        <route edges="8/2to8/1 8/1to9/1 9/1to10/1 10/1to10/2 10/2to11/2 11/2to12/2 12/2to13/2 13/2to14/2 14/2to15/2 15/2to15/1"/>
    </vehicle>
    <vehicle id="1658" depart="15.11" departLane="best" departSpeed="0.00" fromTaz="2" toTaz="3">
        <route edges="1/16to1/15 1/15to1/16"/>
    </vehicle>
    <vehicle id="6993" depart="15.13" departLane="best" departSpeed="0.00" fromTaz="99" toTaz="99">
        <route edges="4/14to3/14 3/14to2/14 2/14to2/13 2/13to2/12 2/12to2/11 2/11to2/10 2/10to2/9 2/9to2/8 2/8to2/7 2/7to2/6 2/6to2/5 2/5to2/4"/>
    </vehicle>
    <vehicle id="2755" depart="15.14" departLane="best" departSpeed="0.00" fromTaz="3" toTaz="2">
        <route edges="9/16to9/15 9/15to9/16"/>
    </vehicle>
    <vehicle id="4243" depart="15.15" departLane="best" departSpeed="0.00" fromTaz="99" toTaz="99">
        <route edges="7/6to6/6 6/6to6/5 6/5to6/4 6/4to6/3 6/3to6/2"/>
    </vehicle>
    <vehicle id="1237" depart="15.22" departLane="best" departSpeed="0.00" fromTaz="2" toTaz="3">
        <route edges="1/16to1/15 1/15to1/16"/>
    </vehicle>
    <vehicle id="2119" depart="15.34" departLane="best" departSpeed="0.00" fromTaz="3" toTaz="2">
        <route edges="9/16to9/15 9/15to9/16"/>
    </vehicle>
    <vehicle id="856" depart="15.70" departLane="best" departSpeed="0.00" fromTaz="1" toTaz="4">
        <route edges="5/16to5/15 5/15to5/16"/>
    </vehicle>
    <vehicle id="4997" depart="15.70" departLane="best" departSpeed="0.00" fromTaz="99" toTaz="99">
        <route edges="9/6to8/6 8/6to7/6 7/6to7/5"/>
    </vehicle>
    <vehicle id="137" depart="15.72" departLane="best" departSpeed="0.00" fromTaz="1" toTaz="4">
        <route edges="5/16to5/15 5/15to5/16"/>
    </vehicle>
    <vehicle id="8491" depart="15.78" departLane="best" departSpeed="0.00" fromTaz="99" toTaz="99">
        <route edges="7/6to6/6 6/6to6/7 6/7to6/8 6/8to6/9 6/9to6/10 6/10to6/11 6/11to6/12 6/12to6/13 6/13to6/14 6/14to7/14 7/14to8/14 8/14to8/13"/>
    </vehicle>
    <vehicle id="5871" depart="15.87" departLane="best" departSpeed="0.00" fromTaz="99" toTaz="99">
        <route edges="1/1to1/2 1/2to16/2 16/2to15/2 15/2to14/2 14/2to13/2 13/2to12/2"/>
    </vehicle>
    <vehicle id="2649" depart="15.90" departLane="best" departSpeed="0.00" fromTaz="3" toTaz="2">
        <route edges="9/16to9/15 9/15to9/16"/>
    </vehicle>
    <vehicle id="6265" depart="15.92" departLane="best" departSpeed="0.00" fromTaz="99" toTaz="99">
        <route edges="7/11to6/11 6/11to6/12 6/12to6/13 6/13to6/14 6/14to6/15 6/15to7/15 7/15to7/14"/>
    </vehicle>
    <vehicle id="6633" depart="16.06" departLane="best" departSpeed="0.00" fromTaz="99" toTaz="99">
        <route edges="5/2to4/2 4/2to3/2 3/2to2/2 2/2to2/3 2/3to2/4 2/4to2/5 2/5to2/6 2/6to2/7 2/7to2/8 2/8to3/8"/>
    </vehicle>
    <vehicle id="4028" depart="16.08" departLane="best" departSpeed="0.00" fromTaz="99" toTaz="99">
        <route edges="2/1to1/1 1/1to1/2 1/2to1/3 1/3to2/3"/>
    </vehicle>
    <vehicle id="6579" depart="16.14" departLane="best" departSpeed="0.00" fromTaz="99" toTaz="99">
        <route edges="7/9to7/8 7/8to6/8 6/8to5/8 5/8to5/7 5/7to5/6 5/6to5/5 5/5to5/4 5/4to6/4"/>
    </vehicle>
    <vehicle id="5249" depart="16.19" departLane="best" departSpeed="0.00" fromTaz="99" toTaz="99">
        <route edges="15/7to16/7 16/7to1/7 1/7to1/8 1/8to1/9 1/9to1/10 1/10to2/10"/>
    </vehicle>
    <vehicle id="5994" depart="16.20" departLane="best" departSpeed="0.00" fromTaz="99" toTaz="99">
        <route edges="2/7to2/6 2/6to1/6 1/6to16/6 16/6to15/6 15/6to14/6 14/6to13/6 13/6to12/6 12/6to12/5 12/5to12/4 12/4to11/4"/>
    </vehicle>
    <vehicle id="7337" depart="16.32" departLane="best" departSpeed="0.00" fromTaz="99" toTaz="99">
        <route edges="15/15to14/15 14/15to13/15 13/15to13/16 13/16to12/16"/>
    </vehicle>
    <vehicle id="7702" depart="16.70" departLane="best" departSpeed="0.00" fromTaz="99" toTaz="99">
        <route edges="7/4to7/5 7/5to6/5 6/5to6/6 6/6to6/7 6/7to6/8 6/8to6/9 6/9to6/10 6/10to6/11 6/11to6/12 6/12to6/13 6/13to5/13"/>
    </vehicle>
    <vehicle id="2424" depart="16.72" departLane="best" departSpeed="0.00" fromTaz="3" toTaz="2">