<!-- Check options available at: https://sumo.dlr.de/xsd/sumoConfiguration.xsd -->
<configuration>
    <input>
        <net-file value="XS_grid16_noBastra_reference_fulltraffic_incident.net.xml"/>
        <route-files value="XS_grid16_noBastra_reference_fulltraffic_incident.typed-routes.xml"/>
	<remote-port value="2081"/>
    </input>

    <time>
        <begin value="0"/>
        <end value="2000"/>
    </time>

    <processing>
        <!-- <time-to-teleport value="-1"/> -->
        <time-to-teleport value="-1"/>
    </processing>

    <report>
        <no-warnings value="yes"/>
        <no-step-log value="yes"/>
	<print-options value="yes"/>
    </report>

</configuration>
