<?xml version="1.0" encoding="UTF-8"?>

<configuration xmlns:xsi="http://www.w3.org/2001/XMLSchema-instance" xsi:noNamespaceSchemaLocation="http://sumo.dlr.de/xsd/netgenerateConfiguration.xsd">

    <grid_network>
        <grid value="true"/>
        <grid.number value="__GRID_SIZE__"/>
        <grid.length value="100.0"/>
        <grid.attach-length value="30"/>
    </grid_network>

    <output>
        <output-file		value="__PREFIX__.net.xml"/>
        <plain-output-prefix	value="__PREFIX__"/>
    </output>

    <building_defaults>
        <default.lanenumber	value="__LANES__"/>
        <default.speed		value="__MAX_SPEED"/>
        <default.priority	value="-1"/>
    </building_defaults>

    <report>
        <verbose value="true"/>
    </report>

</configuration>
