<!-- Check options available at: https://sumo.dlr.de/xsd/sumoConfiguration.xsd -->
<configuration>
    <input>
        <net-file value="__PREFIX__.net.xml"/>
        <route-files value="__PREFIX__.typed-routes.xml"/>
	<remote-port value="__SUMO_PORT__"/>
    </input>

    <time>
        <begin value="0"/>
        <end value="2000"/>
    </time>

    <processing>
        <!-- <time-to-teleport value="-1"/> -->
        <time-to-teleport value="__TELEPORTING__"/>
    </processing>

    <report>
        <no-warnings value="yes"/>
        <no-step-log value="yes"/>
	<print-options value="yes"/>
    </report>

    <mesoscopic>
	<mesosim value="yes"/>
	<!-- default values as of https://sumo.dlr.de/wiki/SUMO#Mesoscopic
	<meso-edgelength value="98"/>
	<meso-tauff value="1.13"/>
	<meso-taufj value="1.13"/>
	<meso-taujf value="1.73"/>
	<meso-taujj value="1.4"/>
	<meso-jam-threshold value="-1"/>
	<meso-multi-queue value="true"/>
	<meso-junction-control value="false"/>
	<meso-junction-control.limited value="false"/>
	<meso-tls-penalty value="0"/>
	<meso-minor-penalty value="0"/>
	<meso-overtaking value="false"/>
	<meso-recheck value="0"/>
	-->
    </mesoscopic>

</configuration>
