<!-- Check options available at: https://sumo.dlr.de/xsd/sumoConfiguration.xsd -->
<configuration>
    <input>
        <net-file value="__PREFIX__.net.xml"/>
        <route-files value="__PREFIX__.typed-routes.xml"/>
	<remote-port value="__SUMO_PORT__"/>
    </input>

    <time>
        <begin value="0"/>
        <end value="2000"/>
    </time>

    <processing>
        <!-- <time-to-teleport value="-1"/> -->
        <time-to-teleport value="__TELEPORTING__"/>
    </processing>

    <report>
        <no-warnings value="yes"/>
        <no-step-log value="yes"/>
	<print-options value="yes"/>
    </report>

</configuration>
