<tazs>
  <!-- N-II Extremo Madrid -->
  <taz id="1">
	    <!-- carriles principales -->
            <tazSource id="35576028" weight="0.8"/>
	    <!-- via de servicio  -->
            <tazSource id="125462782#0" weight="0.2"/>

	    <!-- carriles principales -->
	    <tazSink id="409770784" weight="1"/>
  </taz>

  <!-- N-II Extremo Barcelona -->
  <taz id="2">
            <tazSource id="355558165#0" weight="1"/>
	    <tazSink id="23859154#1" weight="1"/>
  </taz>

  <!-- M-100 Extremo Mejorada -->
  <taz id="3">
            <tazSource id="4616750#0" weight="1"/>
	    <tazSink id="96645524#1" weight="1"/>
  </taz>

  <!-- M-100 Extremo Daganzo -->
  <taz id="4">
            <tazSource id="329573257" weight="0.5"/>
            <tazSource id="97751437#0" weight="0.5"/>
	    <tazSink id="409863378#2" weight="0.5"/>
	    <tazSink id="66848920" weight="0.5"/>
  </taz>

  <!-- M-300 Extremo Alcala -->
  <taz id="5">
	    <!-- M-300 destino alcala -->
            <tazSource id="22726045" weight="0.3"/>
	    <!-- M-300 destino arganda -->
            <tazSource id="180049723#0" weight="0.7"/>
	    <tazSink id="126777129#2" weight="0.5"/>
	    <tazSink id="180049721#1" weight="0.5"/>
  </taz>

  <!-- M-300 Extremo Arganda -->
  <taz id="6">
            <tazSource id="345228944#0" weight="1"/>
	    <tazSink id="-345228944#0" weight="1"/>
  </taz>

  <!-- M-119 Extremo Camarma -->
  <taz id="7">
            <tazSource id="-95159050#1" weight="1"/>
	    <tazSink id="95159050#1" weight="1"/>
  </taz>

  <!-- M-121 Extremo Meco -->
  <taz id="8">
            <tazSource id="-26141600" weight="1"/>
	    <tazSink id="26141600" weight="1"/>
  </taz>

  <!-- Pruebas para el tunel de la FIAT -->
  <!-- lado Alcala -->
  <taz id="700">
            <tazSource id="180049722" weight="1"/>
	    <tazSink id="125233793#1" weight="1"/>
  </taz>
  <!-- lado Madrid -->
  <taz id="701">
            <tazSource id="100851688" weight="1"/>
	    <tazSink id="-100851688" weight="1"/>
  </taz>

  <!-- Pruebas Avda.Complutense -->
  <!-- Extremo Oeste -->
  <taz id="702">
            <!-- <tazSource id="23867498" weight="1"/> -->
	    <!-- <tazSink id="91348403#1" weight="1"/> -->

            <!-- <tazSource id="75117902#1" weight="1"/> -->
	    <!-- <tazSink id="19916361#0" weight="1"/> -->

            <tazSource id="254899431#1" weight="1"/>
	    <tazSink id="19916361#0" weight="1"/>
  </taz>
  <!-- Extremo Este -->
  <taz id="703">
            <!-- <tazSource id="409076847#2" weight="1"/> -->
	    <!-- <tazSink id="23859062#0" weight="1"/> -->

            <!-- <tazSource id="409076847#0" weight="1"/> -->
	    <!-- <tazSink id="77065292" weight="1"/> -->

            <tazSource id="77065294#0" weight="1"/>
	    <tazSink id="409245126#2" weight="1"/>
  </taz>

  <!-- GLOBAL POPULATION -->
  <!-- Generated by mutraff_tazcalc. alvaro.paricio@uah.es -->
  <!-- name="Poblacion" -->
  <taz id="1000" edges="-340775020#0 -340775020#1 123483958#1 123483958#0 50170606 50170601 -331153621#1 -331153621#0 50170609 -32900457 32907397#0 32907397#3 32907397#2 -32900453 32907397#4 -254821791#1 -254821791#0 409073643#0 409073643#1 29089912#2 85526060#2 85526060#1 85526060#0 26419353 -95159036#1 -95159036#0 378122091 256644253#1 256644253#0 256644253#3 256644253#2 256644244 256644245 256644242 256644243 123484052#6 123484052#5 123484052#4 123484052#3 123484052#2 123484052#1 123484052#0 197934834 -26141622#1 -26141622#0 123483911#0 123483911#1 123483911#2 75902139#0 -301073295 32907397#1 416854415 75482916#0 409263092 409263090 75482916#3 158349113#1 158349113#0 75482916#2 75482916#5 75482916#4 -394646711 75482916#7 32933686 46929206 46929207 46929205 165660900 165660901 -242703052 -242703053 -242703050 165660909 32918604#1 32918604#2 32918604#3 344082755#0 344082755#1 -256287032#1 -256287032#0 23957343#5 380895136#0 314112001 -123483821#1 -123483821#2 -123483821#3 -123483821#4 -123483821#5 -123483821#6 -123483821#7 197934829#4 197934829#5 197934829#0 313839708 197934829#2 197934829#3 76508323#1 76508323#0 32402836#1 32402836#0 32402836#3 -85526066#2 -408922028#3 -408922028#2 -408922028#1 -408922028#0 -75117862#1 -408922028#5 -408922028#4 255267604#1 255267604#0 23971580 23971589 67091821#0 -218162396 -218162395 -218162391 151082238#0 151082238#1 151082238#2 23919464 23971639 409341278 75117861#1 75117861#0 408961940 395162595 75117829#1 75117829#0 -23957383#1 -23957383#0 -23957383#2 258679109 90746327#1 90746327#0 90746327#3 90746327#2 -76259306#1 -76259306#0 76508297#3 76508297#2 76508297#4 -409044039#4 -409044039#3 -409044039#2 -320348772#2 -320348772#3 -320348772#0 35968929#0 -320348772#1 35968929#1 23957546#2 23957546#3 23957546#0 23957546#1 23957546#4 -23957529#3 -23957529#2 -23957529#1 -23957529#0 -23957529#4 23352493#0 227353608 23352493#2 23352493#3 23352493#4 23352493#5 23352493#6 -444022501 -34908563#1 -323877905#0 -323877905#1 -34908563#0 -76508335 32880131#1 32880131#0 -23869997 28343758#1 28343758#0 -23957518 23867498 75126568 23907602#0 23907602#1 23907602#2 23907602#3 23907602#4 23907602#5 75142432 -123483885 -28359661#3 -28359661#2 -28359661#1 -28359661#0 -381991689 23907599#2 23907599#1 23907599#0 -75117888 -36248211 123483754#4 123483754#3 123483754#2 123483754#1 123483754#0 255070822#4 32401431#1 32401431#0 255070822#1 255070822#0 255070822#3 255070822#2 357265146#1 357265146#0 -158273375 429375355 151082219 151082218 75689940#1 75689940#0 50170636#0 255267612 95159032#2 95159032#1 75902139#1 123483911#3 -422736334 -28343716#11 23957429#1 -150932487#1 -150932487#0 36248644#0 36248644#1 23957406#4 409263094 75482895#1 75482895#0 -23858944#2 -23858944#3 -23858944#0 -23858944#1 205623592#0 205623592#1 329736568#1 329736568#0 -75482895#1 -75482895#0 23919488#2 23919488#1 123483894 28355568#1 394645222#0 28343753#0 28343753#1 -36243999#0 -36243999#1 -28343755#0 -28343755#1 -28343755#2 -28343755#3 28343718#1 28343718#0 23907625#4 23907625#1 23907625#0 23907625#3 23907625#2 -242703048#0 -242703048#1 -355350993#0 -355350993#1 75117824#2 75117824#3 75117824#0 75117824#1 373638534 124900770#4 124900770#5 124900770#6 124900770#0 124900770#1 124900770#2 124900770#3 -75810143 154170703#0 154170703#1 409768907 -196691542#1 -218162402 314111997#0 314111997#1 23957428#5 23957428#4 23957428#3 23957428#2 23957428#1 23957428#0 -28359594#0 259222626 259222624 23957301#1 23957301#0 382019868 28343782#3 32401739 -75810152 28343782#7 421819916#2 421819916#1 421819916#0 -192156463#1 -192156463#0 -129144289#0 -129144289#1 -129144289#2 -103584164 35968930 408875679#4 408875679#5 384211442 408875679#1 408875679#2 408875679#3 32559728#0 32559728#1 32559728#2 23870217#1 -23907567#0 -23907567#1 424607722 36244608#3 23870217#0 -256519084#0 -256519084#1 -28355505#0 50170578#0 50170578#1 50170578#2 -28355505#1 -154170658#1 35969129 -154170658#0 36249804 -150036343#3 61238148#0 61238148#1 61238148#2 -150036343#2 120510394 120510395 120510396 120510397 204612804 -158349121 34908566#0 34908566#1 34908566#2 34908566#3 34908566#4 408880647#6 408880647#5 -76508317 408880647#9 408880647#8 123021267#0 123021267#1 123021267#2 -23957290#1 -23957282 -23957286 -255267604#1 -255267604#0 -22726238#2 -23957290#5 28355589 -23957290#6 -23957290#7 218015773#0 218015773#1 218015773#2 28355587 90746332#2 23905116 106134314#0 192453746#2 192453746#1 192453746#0 22933157#9 22933157#8 22933157#7 22933157#6 22933157#5 22933157#4 22933157#3 22933157#2 22933157#1 22933157#0 76508295 76508298 32933725 242703056#1 242703056#0 -24038130#2 395906340 -75117865 -158349119#1 -158349119#0 -158349119#2 -23907675#2 -23907675#3 -23907675#0 -23907675#1 -23907675#6 -23907675#4 -23907675#5 151082235 151082234 151082233 151082232 151082230 46929204#5 46929204#4 46929204#7 46929204#6 46929204#1 46929204#3 46929204#2 254821794#4 254821794#2 254821794#3 254821794#0 254821794#1 23957553#0 23957553#1 -158265382#0 123484097 -123483821#0 134180011#2 134180011#1 134180011#0 329462037 329462033 123483978#2 -158273368#1 -158273368#0 -158273368#2 123483978#0 -32900481#2 -32900481#3 -32900481#0 -32900481#1 123483978#7 71213424#1 71213424#0 19916361#0 304149611#5 304149611#4 304149611#6 304149611#1 304149611#0 304149611#3 304149611#2 19916361#2 75117910#6 75117910#7 75117910#4 75117910#5 75117910#2 75117910#3 75117910#0 75117910#1 -165660895#2 32900573 -24038130#0 32900576 197934829#1 -165660895#1 191916908#0 191916908#1 191916908#2 191916908#3 35968928#1 35968928#0 -339795792 -150036359#0 256519084#0 256519084#1 218015765#1 -28355589 -28355585 -28355587 174188604#1 123483857#3 123483857#2 123483857#1 123483857#0 75117870#1 75117870#0 75117870#3 123483857#4 -252184787 29089902#2 -344082744#0 -344082744#1 -85526066#1 -85526066#0 -50170636#1 -50170636#0 -50170636#2 -345227289#0 -345227289#1 22726238#1 22726238#0 22726238#2 -344082785#1 -344082785#0 300511262#0 300511262#1 409073647#0 409073647#1 118195326#4 118195326#5 118195326#2 118195326#3 118195326#0 118195326#1 -197934836#0 -197934836#1 158265372 409815965 394645223 378121652#1 378121652#0 -76508297#4 75117924#3 75117924#2 75117924#1 75117924#0 158273354#0 158273354#1 28355570#0 28355570#1 409243929#2 24038148 409243929#3 -67079133#3 409243929#1 67091821#1 -161480961 103584164 -123484086#0 -123484086#1 -123484086#2 -123484086#3 -123484086#4 -123484086#5 -123484086#6 -123484086#7 53163821#0 53163821#1 53163821#2 53163821#3 23971549 28343677#1 28343677#0 28343677#3 28343677#2 -75117881#1 28343677#4 123484116#0 123484116#1 -45834700#4 -45834700#5 -45834700#2 -45834700#3 -45834700#0 -45834700#1 158349117#3 158349117#2 158349117#1 158349117#0 22933228 22933136#8 22933136#9 22933136#4 357265153#2 22933136#6 22933136#7 22933136#0 22933136#1 22933136#2 22933136#3 -134180011#2 -134180011#1 -134180011#0 256644246#3 -150932482#1 256644246#1 256644246#0 76043573 76043570 -19915272#2 23904540#0 23904540#1 23904701#4 -150036422 158265382#2 158265382#0 158265382#1 23957281#0 380683010#1 380683010#0 380683010#3 380683010#2 380683010#4 262725939#1 32401702 32401701 50170588 -123484116#0 -123484116#1 -123483978#3 -123483978#2 -123483978#1 -123483978#0 -123483978#7 -123483978#6 -123483978#5 -123483978#4 4616731#0 4616731#1 221078256#3 221078256#2 221078256#1 23957347#2 -218015778#1 221078256#4 -218015778#0 23957370#3 23957370#2 23957370#1 23957370#0 23957370#4 77058988 77058986 77058980 77058981 32906889#4 32906889#5 32906889#6 32906889#7 32906889#0 32906889#1 32906889#2 32906889#3 32906889#8 -77058986 394231482#0 394231482#1 -323877909#0 -323877909#1 -75117846 -75117840 386810381 -158350661 -158350660 -28355566#1 -28355566#0 -28359590#0 -28359590#1 -28359590#2 254816241#3 254816241#2 254816241#1 254816241#0 32401851#1 32401851#0 32401851#3 254816241#4 -421819916#2 -421819916#1 -421819916#0 -254312697 242703069#0 -75482919 218015783#1 218015783#0 77065289 123483888#0 75810132#0 75810132#1 32906855#1 32906855#0 -158265387 -158265386 -158265389 254899431#1 254899431#0 123021276 123021275 91341787 -76259313 -35968160#0 -218174415 -218174413 -218174411 424607755#2 424607755#3 339795797 424607755#1 339795792 28359604#0 28359604#1 123484158#0 123484158#1 -23971627 -23971623 123483762#1 23907595#7 23907595#6 23907595#5 23907595#4 23907595#3 123483762#2 23907595#1 23907595#0 123483750#1 123483750#0 23907595#8 -28355562 -334034757 118195334 118195335 118195336 118195337 118195331 118195332 118195333 118195338 118195339 -174188606#5 -174188606#4 -174188606#6 -174188606#1 -174188606#0 -174188606#3 -174188606#2 32933482#3 32933482#2 32933482#1 32933482#0 23907555#3 23907555#2 23907555#1 123483854 313803676#1 123483852 313803676#3 313803676#2 32933553 -158260380 75902132#4 -23971712#4 75902132#5 91348405 23907662#1 75902132#0 75902132#1 75902132#2 50170587#2 50170587#3 50170587#0 50170587#1 50170587#4 -75117835#0 -75117835#1 -75117835#2 158346183 158346182 32933656#0 32933656#1 22932766#0 22932766#1 24038150#0 24038150#1 24038150#2 24038150#3 24038150#4 24038150#5 -242703054#0 151292464#2 151292464#3 -218162425#2 -218162425#1 -218162425#0 361323214#1 361323214#0 361323214#3 361323214#2 76508297#1 76508297#0 36250027 24038167 36250029 -23957307 -23904447#0 -23904447#1 32933616#1 330982381 330982380 330982385 330982388 28343714#1 28343714#0 28343714#3 28343714#2 -372372755 28343714#4 50170605#3 50170605#2 50170605#1 50170605#0 23904436#0 23904436#1 28359585#2 28359585#3 28359585#0 28359585#1 91973638#2 91973638#1 91973638#0 77058975#1 77058975#0 -408875679#4 -408875679#5 -408875679#0 -408875679#1 -408875679#2 -408875679#3 118201163#1 118201163#0 204970805 204970804 -424825345 158255574#2 123484162#8 -409073647#0 -409073647#1 150036349 242703062 150036346 -69966120#4 -69966120#5 -69966120#0 -69966120#1 -69966120#2 -69966120#3 -71213424#1 -71213424#0 -23941732#0 -23941732#1 242703064#0 242703064#1 32900499 23352493#1 158349121 32403593#0 32403593#1 23957558#2 23957558#1 23957558#0 35932981#0 344082759 344082757 344082750 344082751 344082752 344082753 23858696#0 23858696#1 23858696#2 23858696#3 23858696#4 23858696#5 23858696#6 -221080071 96645524#0 24038173#1 24038173#0 24038173#3 24038173#2 125233797 125233796 254816248#2 254816248#0 254816248#1 24560962#1 24560962#0 444022501 35968925#0 35968925#1 75117921#0 75117921#1 -385760032 314111996 75117918#0 123483821#7 27540909#1 27540909#0 27540909#3 27540909#2 27540909#5 27540909#4 27540909#6 -75117823 4616729#1 4616729#0 -100851682 254542625 23859062#1 23859062#2 23859062#3 254542623 32907729 67091820#0 67091820#1 32559731#2 75117925 32559731#0 32559731#1 75117922 344082754#1 344082754#0 -255267600#1 -255267600#0 76508319#1 382134171#2 382134171#0 382134171#1 -23904468#1 -23904468#0 32906896 -151292469 32906899 32402199#5 41222511#3 41222511#2 41222511#1 41222511#0 -422632975 355558160 32900481#2 32900481#0 32900481#1 191926973#1 191926973#0 23971731 75117860#4 -90746319#2 75117860#3 75117860#0 -90746319#1 -23957345#3 -23957345#2 -23957345#1 -23957345#0 -23957345#6 -23957345#5 -23957345#4 124900769#0 218162392#1 409041501#4 409041501#5 409041501#6 409041501#7 409041501#0 409041501#1 409041501#2 409041501#3 36250321#3 36250321#2 36250321#1 36250321#0 75117881#1 75117881#0 -386810383#0 -386810383#1 129144301 36249487#1 199419942#4 199419942#0 199419942#1 199419942#2 199419942#3 408891181#0 408891181#1 -76508319#0 -76508319#1 46925280 28343754 -32907386#2 -32907386#1 -32907386#0 4616730#7 4616730#6 -77058967 4616730#5 320348772#2 320348772#3 123483789 4616730#4 71213417#1 71213417#0 320348772#4 4616730#3 123483836 118201172#6 340775018#1 340775018#0 -158255575#1 -158255575#0 -158255575#2 32900593#2 32900593#3 32900593#0 32900593#1 32900593#4 75689637 75689638 23859062#0 75902130#0 75902130#1 -75810131#2 -75810131#1 -75810131#0 -344082789#1 -344082789#0 -344082789#3 -344082789#2 -409243929#0 23957383#1 23957383#0 -409243929#1 50170575#1 50170575#0 50170575#3 50170575#2 50170572#21 50170572#20 50170572#23 50170572#22 50170572#25 50170572#24 91348367#8 91348367#6 91348367#7 91348367#4 91348367#5 91348367#2 91348367#3 91348367#0 91348367#1 23907598#2 23907598#3 23907598#0 23907598#1 23907598#4 23907598#5 23971505 23971500 -422736348#1 -422736348#0 -123484063 123484143#0 123484143#1 123484143#2 123484143#3 123484143#4 123484143#5 123484143#6 123484143#7 123484143#8 35968926 35968927 35968924 22890625 22890629 -174188603#8 -174188603#9 -174188603#0 -174188603#1 -174188603#2 -174188603#3 -174188603#4 -174188603#5 -174188603#6 -174188603#7 -129144301 23904519#2 32933439#0 23904519#0 23904519#1 424825353 -23971699#1 -23971699#0 -416854415 19916359#0 95159033#3 19916359#2 19916359#3 19916359#4 19916359#5 19916359#6 19916359#7 4616748#6 4616748#7 4616748#4 4616748#5 4616748#2 4616748#3 4616748#0 4616748#1 409056266#4 409056266#5 409056266#2 409056266#3 409056266#0 409056266#1 -424607722 53163825#0 53163825#1 -218015777 77058958#0 77058958#1 32880088 -32900658 23971647#0 23971647#1 249995217#0 249995217#1 150036376#9 197934830#7 134180009#0 118195344#0 134180009#1 118195344#1 150036376#8 353681946 218162425#2 218162425#1 218162425#0 205623589#0 205623589#1 249995214 249995215 249995218 249995219 23907583#6 28355553#1 -323877903 416854420 78579993#0 -28343683#4 78579993#2 -28343683#5 23904423#0 23904423#1 23904423#2 23904423#3 158848993#1 158848993#0 -120509978 -394645222#1 -394645222#0 150036384#0 150036384#1 218162394#0 160639340 91341791 91341792 -158265378#1 -158265378#0 -158265378#2 218162394#1 345227289#0 345227289#1 91348410 -23919447#0 -23919447#1 254816242 254816246 380895136#1 23957343#4 23957343#1 23957343#0 23957343#3 23957343#2 -154170717 32401851#2 23907662#0 409333977 -61238144 -75117886 -192453753#1 -192453753#0 75117900 75117901 75117906 -320348772#4 75117905 -32933489#0 -32933489#1 -32933489#2 -380892201#0 23941724 23941729 192156462 -28343716#12 23957429#0 -28343716#10 23957406#5 296705829 23957406#3 23957406#2 23957406#1 23957406#0 313840701#2 313840701#1 313840701#0 -28359602#0 -28359602#1 95159041 -90746321 95159048 28343716#12 28343716#11 28343716#10 -123483790 22933215 32900513 32900510 32900516 433171722 -345227290#0 -253086826#2 -253086826#0 -253086826#1 352350658 -382109587 23971567#1 23971567#0 23971567#3 23971567#2 254821751 23971567#4 254821752 174188604#3 174188604#2 -50170586#5 -50170586#4 -50170586#3 -50170586#2 -50170586#1 -50170586#0 23904447#0 23904447#1 252184790#0 252184790#1 -134241635 -134241634 179175861#1 179175861#0 97751434 75117911#6 32904613 -23957520#2 -23957520#0 -23957520#1 -23957500#0 -23957500#1 -23957500#2 -249998940 53163822 53163823 373638488#2 32906936#1 -77058980 373638488#1 71213419 71213418 -77058988 32933805#3 123483766 -254312692 -254312690 242703069#1 -254312696 -24560962#1 -24560962#0 -23957295#5 -23957295#4 -23957295#6 -23957295#1 -23957295#0 -23957295#3 -23957295#2 -77806020 -75123401#0 -23905116 191932329#1 -242703054#1 -28355565#0 35968162#1 35968162#0 -28355565#1 75810149#0 75810149#1 -378122230#0 -378122230#1 50170602#8 -123483949 158255580#1 158255580#0 408963359 408963358 408963355 408963354 408963357 408963356 -23919507#0 408880652 408880657 124900772#2 32900502#0 32900502#1 32900502#2 -32900473#1 -32900473#0 -32900473#3 -32900473#2 -123484081 -123484089 242703047#1 242703047#0 -253086824 32402199#1 32402199#0 32402199#3 32402199#2 -36248920#1 32402199#4 -36248920#2 123483953#2 123483953#3 123483953#0 123483953#1 123483953#6 32900481#3 123483953#4 123483953#5 -32933482#3 -32933482#2 -32933482#1 -32933482#0 -23907619 -409243929#2 -409243929#3 254821795#1 254821795#0 -32933464#0 28359681 -28343725#1 -28343725#0 -28343725#3 -28343725#2 -28343725#4 -23907551 197934830#2 197934830#3 197934830#0 197934830#1 23957501#1 23957501#0 197934830#4 197934830#5 75689935#1 75689935#0 46925281#3 -221092679 85892142 32401949 -249995218 191932329#0 22726241 313495203 313495200 313495201 313495209 36246428 -329471122#2 -329471122#1 -329471122#0 23957307 23957306 23957309 75126438#1 75126438#0 -188988855#0 -188988855#1 387125198 123483829#0 164049083#0 164049083#3 164049083#2 164049083#5 164049083#4 164049083#7 164049083#6 164049083#9 164049083#8 -386810381 -28343686#5 -28343686#4 -28343686#7 -28343686#6 -28343686#1 -28343686#0 -28343686#3 -28343686#2 -123484170#2 -123484170#3 -123484170#0 -123484170#1 -28343686#9 -28343686#8 75117884#0 75117884#1 -91332255 75117884#3 75117884#4 85526065#0 85526065#1 -66732641 -66732647 -66732645 123484111#2 123484111#5 123484111#4 -23957310 123484111#6 -28355491#0 -28355491#1 118195327#5 118195327#4 118195327#3 118195327#2 118195327#1 118195327#0 23957520#2 23957520#0 23957520#1 164049083#1 123483829#1 394648868 36247684#3 -151292475#0 -151292475#1 -151292475#2 28355503 -151292475#4 -151292475#5 28355509 75117845#1 75117845#0 -75117874#1 4616745 75117832#5 -123484141#2 -123484141#0 32403419#3 32403419#2 32403419#1 32403419#0 32403419#5 32403419#4 28355565#0 28355565#1 -196251461#1 -196251461#0 -252184789 -174188603#10 76508313#0 76508313#1 -254821795#1 -254821795#0 76508313#4 76259307 76259300 76259301 76259309 23907628#0 23907628#1 23907628#2 23907628#3 23907628#4 197935585#0 197935585#1 197935585#2 197935585#3 197935585#4 197935585#5 197935585#6 197935585#7 197935585#8 197935585#9 50170570#0 50170570#1 -191930237 75117884#2 -408625732#4 256362052#1 256362052#0 -408625732#3 256362052#2 106134332#1 106134332#0 106134332#2 123483915#0 123483915#1 123483915#2 123483915#3 188988855#0 188988855#1 -158273354#0 -158273354#1 409333982 197934838#0 197934838#1 422507344#6 422507344#5 422507344#4 422507344#3 422507344#2 422507344#1 422507344#0 -23941767#0 -23941767#1 150932482#0 150932482#1 150932482#2 23957371#2 23957371#3 23957371#0 23957371#1 23957371#6 23957371#4 23957371#5 196251462 75117864#2 75117864#0 75117864#1 158265377#0 158265377#1 386386639#2 386386639#3 386386639#0 386386639#1 151292455#0 386386639#4 28343711 23957265#0 23957265#1 75123401#0 75123401#1 -28355503 -28355509 23957345#1 125233792#1 123483822#1 123483822#0 -123483825#0 -123483825#1 -123483825#2 -97751406#0 -97751406#1 212506550#2 212506550#3 212506550#0 212506550#1 -23957353#2 -75117922 -23957353#0 -23957353#1 357265166#1 357265166#0 123483741 112154460 90746332#1 90746332#0 252184788#1 252184788#0 252184788#2 -75117884#3 -75117860#2 -75117860#3 -75117860#0 -75117860#1 -75117860#4 -165660895#0 23957518 -174188609 253086826#2 253086826#0 253086826#1 -174188601 -123483968 174188613 174188612 -28355491#3 32907516 424825355#0 424825355#1 23907575#1 23907575#0 23907575#3 23907575#2 28355546#1 28355546#0 28355546#3 28355546#2 28359622 32402162 -225743996#3 -225743996#2 -225743996#1 -225743996#0 85526059#1 85526059#0 -85526064 373638487 373638486 409045422#30 409045422#31 409045422#32 150036326 378118811 -151292475#3 123484163#2 123484163#0 123484163#1 117976252#0 117976252#1 23957185#1 23957185#0 23957185#2 252184791 252184792 -75117921#0 -75117921#1 103584184#0 103584184#1 -75117874#0 61238360#0 61238360#1 314111999#0 314111999#1 -75902130#0 -75902130#1 -192453746#2 -192453746#1 -192453746#0 23858590#1 23858590#0 23858590#3 23858590#2 -120510394 -120510395 -120510396 -120510397 23907594#4 23907594#5 23907594#2 23907594#3 -421819873 23907594#1 -150932483#3 23957302#0 23907660 23907666 23957302#1 156663585#3 156663585#2 156663585#1 156663585#0 156663585#5 156663585#4 -22892064#4 -22892064#5 69708147#1 69708147#0 -32933615#1 45896983#2 106134397#0 106134397#1 -32933615#0 -34908564 -32933615#2 -394649077 357265150 150036356#1 150036356#0 75117816#9 75117816#8 -23957558#2 -23957558#1 -23957558#0 75117816#1 75117816#0 75117816#3 75117816#2 75117816#5 75117816#4 75117816#7 75117816#6 197934835#1 197934835#0 28355525 23905091#0 23905091#1 23905091#2 23905091#3 23905091#4 296704315#1 296704315#0 158265388 256287032#1 256287032#0 158265387 158265386 158273370#2 158273370#3 158273370#0 158273370#1 -196251461#2 158273370#7 -28343686#10 50170604#2 50170604#3 50170604#0 50170604#1 50170604#4 50170604#5 23870257 67091823 394645222#1 76508313#2 28355568#0 179175830 76508313#3 179175836 179175837 179175834 179175835 192156461#1 192156461#0 192156461#3 192156461#2 192156461#4 -23870217#1 300508029#4 300508029#1 300508029#0 300508029#3 300508029#2 301073295 -23870217#0 -296704315#1 -296704315#0 255070826 -75689640 254899430 23971534#1 50170591#3 23971534#2 259222625#0 50170591#0 32933660#4 32933660#1 32933660#0 32933660#3 32933660#2 -242703064#0 -242703064#1 32401397#0 32401397#1 -408961940 -50170576 -380887380#3 -380887380#2 -380887380#1 -380887380#0 -380887380#5 -380887380#4 -23907673#0 -23907673#1 -212506551 156663598#0 156663598#3 156663598#2 -23904435#1 -23904435#0 242703051#0 242703051#1 123800452 421819873 191930374 -23904506#2 -23904506#3 -23904506#0 -23904506#1 331308663 331308662 331308660 323877907#0 323877907#1 -32880258 -91341791 158349119#1 158349119#0 158349119#2 -416854420 23870088 23957305#0 -36249916#1 -36249916#0 36248211 103584189#5 103584189#4 103584189#3 103584189#2 103584189#1 103584189#0 23868450#3 23868450#2 23868450#1 23868450#0 23868450#7 23868450#6 23868450#5 23868450#4 32933567#1 32933567#0 32933440 32933441 256519081#1 256519081#0 256519081#3 256519081#2 256519081#5 256519081#4 256519081#6 23957281#1 -134180009#0 -134180009#1 -295421954 256585721#1 256585721#0 256585721#3 256585721#2 -310738320#1 -310738320#0 91348371 328644846 328644849 -255267601#0 -255267601#1 61312528 -28343693#2 -28343693#1 -23957550#4 -23957550#3 -23957550#2 -23957550#1 -23957550#0 409045422#16 409045422#17 409045422#14 409045422#15 409045422#12 409045422#13 409045422#10 409045422#11 -158255573 409045422#18 409045422#19 22890685 249998869 256362052#4 -124900771 151082202#3 151082202#2 151082202#1 151082202#0 256362052#3 -23941729 23957556#0 -331153620#0 -331153620#1 -158265374#1 -158265374#0 409073642#1 409073642#0 165660896#1 165660896#0 4616730#1 256287030 256287031 256287033 410102852#1 174188610 -23905091#4 -23905091#0 -23905091#1 -23905091#2 -23905091#3 75117835#0 75117835#1 75117835#2 409073638#2 409073638#3 409073638#0 409073638#1 409073638#6 409073638#7 409073638#4 409073638#5 -29287011 -23971606#1 -23971606#0 -23971606#3 -23971606#2 23907639#2 23907639#3 23907639#0 23907639#1 23907567#0 254821791#1 254821791#0 23907567#1 23907664#0 23907664#1 23907664#2 23907664#3 -23971728#0 23907664#5 -23971728#2 23907664#7 23907664#8 23907664#9 23904526#0 23904526#1 4616730#0 158255568 -123484020#0 -123484020#1 -123484020#2 -123484020#3 -254821803 77058969 77058964 77058966 77058967 -123483762#0 -123483762#1 -123483762#2 -123483762#3 118201167#1 118201167#0 -158255574#0 -158255574#1 -158255574#2 -158255574#3 -50170601 -50170609 154170709 123484162#10 154170701 -353681946 -353681947 -353681944 75117914#0 75117914#1 -123483822#1 -123483822#0 76508322#0 76508322#1 76508322#2 76508322#3 -29089902#0 76508322#5 -29089902#2 -29089902#3 255267603#0 255267603#1 409076844#0 409076844#1 -77065287#1 -77065287#0 -77065287#3 -77065287#2 -77065287#5 -77065287#4 -77065287#6 103584214#2 103584214#3 103584214#0 103584214#1 75117849#1 75117849#0 75117849#2 23919509 330982399#0 330982399#1 330982399#2 330982399#3 -23957365#1 -23957365#0 123484055 26141615 -45896971 75117816#11 75117816#10 75117816#12 314111997#2 -196691542#0 -218162401 -218162400 218015769 218015768 218015767 218015766 218015764 156663595 156663593 249995216#1 249995216#0 75123277 -227354784#2 -227354784#3 -227354784#0 -227354784#1 -227354784#6 -75126438#0 -227354784#4 -227354784#5 -50170590 -50170593 -50170592 333979269#1 -50170594 329471122#2 329471122#1 329471122#0 -129144299 -23971595#0 -23971595#1 32900470#2 32900470#3 32900470#0 32900470#1 32900470#6 32900470#4 32900470#5 123483728#4 123483728#2 123483728#3 123483728#0 123483728#1 75117908#5 75117908#4 75117908#6 75117908#1 75117908#0 75117908#3 75117908#2 125234340#2 28355552#4 28355552#5 28355552#2 28355552#3 28355552#0 28355552#1 -28343728#4 -28343728#0 -28343728#1 -28343728#2 -28343728#3 -75810132#0 -75810132#1 328644488 328644489 328644487 -28359594#1 28359662#0 29289692#19 29289692#14 29289692#15 29289692#16 29289692#17 29289692#10 29289692#11 29289692#12 29289692#13 -150036328#0 -150036328#1 50170571#2 36247684#0 150036385#1 150036385#0 23957551 -344082754#1 -344082754#0 -158265379#0 -158265379#1 -158265379#2 -158265379#3 -158265379#4 -28359662#1 -409073649#0 -409073649#1 -197934831#3 -197934831#2 -197934831#1 -197934831#0 -197934831#7 -197934831#6 -197934831#5 -197934831#4 255267596#1 255267596#0 76508332#1 76508332#0 75126644 123483760#2 123483760#3 123483760#0 123483760#1 255070825#2 255070825#0 255070825#1 -32933660#1 -32933660#0 -32933660#3 -32933660#2 -32933660#4 248061781 -150036346 83134395 91348395 -123484094#0 91348398 382109587 328644860 -329736568#1 -329736568#0 67079135 45896972#1 45896972#0 -123483829#0 -123483829#1 22933193 150036359#0 34908507#8 34908507#3 34908507#2 34908507#1 34908507#0 34908507#7 34908507#6 34908507#5 34908507#4 27540987 380892200#0 380892200#1 -50170572#14 -50170572#15 -50170572#16 -50170572#17 -50170572#10 -50170572#11 -50170572#12 -50170572#13 61238145#1 -50170572#18 -50170572#19 23971490 23971493 28359660 28359667 61312543 28343714#5 32559637 333979269#0 106134336 106134330#1 416884951 -23957264#1 -23957264#0 315672087 23907624 156663594#1 156663594#0 150036376#1 150036376#0 150036376#3 150036376#2 150036376#5 150036376#4 150036376#7 150036376#6 -67091822#0 -67091822#1 -67091822#2 -67091822#3 -150932482#0 158273383#0 158273383#1 23907590#2 23907590#0 23907590#1 -23957283#1 29089932#1 29089932#0 29089932#3 29089932#2 45896966 120510393#0 120510393#1 120510393#2 120510393#3 -344082749#1 -344082749#0 22933163 28355562 -300511262#0 -300511262#1 381991689 -123484145 -123484149 23859154#0 28359628#1 -75117824#2 -75117824#3 -75117824#0 -75117824#1 192143688 23907586#1 23907586#0 197934831#3 197934831#2 197934831#1 197934831#0 197934831#7 197934831#6 197934831#5 197934831#4 -90746319#0 -61312536#0 -61312536#1 -61312536#2 -61312536#3 23957416#0 23957416#1 23957416#2 23957416#3 378143339 378143338 -23957290#12 23904618#0 23904618#1 382109583#1 165660914 382109583#3 382109583#2 382109583#5 382109583#4 165660912 -32904613 151292475#0 151292475#1 151292475#2 151292475#3 151292475#4 151292475#5 -23881407#0 -23881407#1 179175871 -50170570#0 -50170570#1 35968931 408875678#1 408875678#0 409056265 75117818 75117814 75117815 -36248920#0 75117817 32900597 32900595 -28359670 32900599 -28359676 442678750 -23957285#2 -23957285#0 -23957285#1 -405649771 75689979 408875679#0 28359593#1 28359593#0 -300506868#2 -300506868#0 -300506868#1 197935286#4 197935286#5 197935286#6 197935286#7 197935286#0 197935286#1 197935286#2 197935286#3 -28355559#1 -28355559#0 -28355559#3 -28355559#2 197935286#8 -32900563 -191926973#1 -191926973#0 -106134372 -165660914 123021266#1 123021266#0 123021266#2 69966121#1 69966121#0 28343725#4 103584239 28343725#1 28343725#0 28343725#3 28343725#2 36249924 301153578#1 301153578#0 -244834835 75117850#2 75117850#1 75117850#0 150932467#1 150932467#0 23971530#1 23971530#0 -32906812 -242703040#2 -242703040#3 -242703040#0 23907675#