<?xml version="1.0" encoding="UTF-8"?>

<!-- generated on Sun Feb  5 11:08:31 2017 by SUMO netconvert Version 0.27.1
<?xml version="1.0" encoding="UTF-8"?>

<configuration xmlns:xsi="http://www.w3.org/2001/XMLSchema-instance" xsi:noNamespaceSchemaLocation="http://sumo.dlr.de/xsd/netconvertConfiguration.xsd">

    <input>
        <type-files value="netconvert.osm.types.xml"/>
        <osm-files value="../osm/madrid_barrio_salamanca.osm"/>
    </input>

    <output>
        <output-file value="madrid_barrio_salamanca.net.xml"/>
        <plain-output-prefix value="madrid_barrio_salamanca"/>
        <output.street-names value="true"/>
        <output.original-names value="true"/>
    </output>

    <projection>
        <proj.utm value="true"/>
        <proj.plain-geo value="true"/>
    </projection>

    <edge_removal>
        <remove-edges.by-type value="highway.bridleway,highway.cycleway,highway.footway,highway.ford,highway.path,highway.pedestrian,highway.service,highway.stairs,highway.step,highway.steps,highway.track,railway.light_rail,railway.preserved,railway.rail,railway.subway,railway.tram"/>
    </edge_removal>

</configuration>
-->

<connections version="0.27" xmlns:xsi="http://www.w3.org/2001/XMLSchema-instance" xsi:noNamespaceSchemaLocation="http://sumo.dlr.de/xsd/connections_file.xsd">
    <connection from="-109462886" to="-109462900#1" fromLane="0" toLane="0"/>

    <connection from="-109462887#0" to="4526341#11" fromLane="0" toLane="0"/>
    <connection from="-109462887#0" to="4526341#11" fromLane="0" toLane="1"/>
    <connection from="-109462887#0" to="-109462899#1" fromLane="0" toLane="0"/>

    <connection from="-109462887#1" to="-109462887#0" fromLane="0" toLane="0"/>
    <connection from="-109462887#1" to="109462887#1" fromLane="0" toLane="0"/>

    <connection from="-109462888" to="-137519639#2" fromLane="0" toLane="0"/>

    <connection from="-109462892#0" to="109462873" fromLane="0" toLane="0"/>
    <connection from="-109462892#0" to="-109462888" fromLane="0" toLane="0"/>

    <connection from="-109462892#1" to="-109462892#0" fromLane="0" toLane="0"/>
    <connection from="-109462892#1" to="109462892#1" fromLane="0" toLane="0"/>

    <connection from="-109462892#2" to="-109462892#1" fromLane="0" toLane="0"/>
    <connection from="-109462892#2" to="109462892#2" fromLane="0" toLane="0"/>

    <connection from="-109462894#0" to="4261173#0" fromLane="0" toLane="1"/>
    <connection from="-109462894#0" to="109462894#0" fromLane="0" toLane="0"/>

    <connection from="-109462894#1" to="-109462894#0" fromLane="0" toLane="0"/>
    <connection from="-109462894#1" to="109462894#1" fromLane="0" toLane="0"/>

    <connection from="-109462894#2" to="-109462894#1" fromLane="0" toLane="0"/>
    <connection from="-109462894#2" to="109462894#2" fromLane="0" toLane="0"/>

    <connection from="-109462895" to="-109462887#1" fromLane="0" toLane="0"/>

    <connection from="-109462899#0" to="-198644581#1" fromLane="0" toLane="0"/>

    <connection from="-109462899#1" to="-109462899#0" fromLane="0" toLane="0"/>
    <connection from="-109462899#1" to="109462899#1" fromLane="0" toLane="0"/>

    <connection from="-109462900#0" to="109462882#0" fromLane="0" toLane="0"/>
    <connection from="-109462900#0" to="-109462895" fromLane="0" toLane="0"/>

    <connection from="-109462900#1" to="-109462900#0" fromLane="0" toLane="0"/>
    <connection from="-109462900#1" to="109462900#1" fromLane="0" toLane="0"/>

    <connection from="-121797007" to="-462175851" fromLane="0" toLane="0"/>
    <connection from="-121797007" to="-462175851" fromLane="1" toLane="1"/>
    <connection from="-121797007" to="121797007" fromLane="1" toLane="1"/>

    <connection from="-131700744" to="-365705720#1" fromLane="0" toLane="0"/>
    <connection from="-131700744" to="131700744" fromLane="0" toLane="0"/>

    <connection from="-137519639#0" to="137519645#0" fromLane="0" toLane="0"/>
    <connection from="-137519639#0" to="-109462886" fromLane="0" toLane="0"/>
    <connection from="-137519639#0" to="137519639#0" fromLane="0" toLane="0"/>

    <connection from="-137519639#1" to="-137519639#0" fromLane="0" toLane="0"/>
    <connection from="-137519639#1" to="137519639#1" fromLane="0" toLane="0"/>

    <connection from="-137519639#2" to="-137519639#1" fromLane="0" toLane="0"/>
    <connection from="-137519639#2" to="137519639#2" fromLane="0" toLane="0"/>

    <connection from="-14567697" to="44336478#0" fromLane="0" toLane="0"/>

    <connection from="-14574696#0" to="-45756883#5" fromLane="0" toLane="0"/>
    <connection from="-14574696#0" to="15106231" fromLane="0" toLane="0"/>
    <connection from="-14574696#0" to="45756883#6" fromLane="0" toLane="0"/>

    <connection from="-14574696#1" to="-14574696#0" fromLane="0" toLane="0"/>
    <connection from="-14574696#1" to="14574656#0" fromLane="0" toLane="0"/>

    <connection from="-14574696#2" to="-14574696#1" fromLane="0" toLane="0"/>

    <connection from="-14574696#3" to="-14574696#2" fromLane="0" toLane="0"/>
    <connection from="-14574696#3" to="14578216#1" fromLane="0" toLane="0"/>

    <connection from="-14574696#4" to="14578101" fromLane="0" toLane="0"/>
    <connection from="-14574696#4" to="-14574696#3" fromLane="0" toLane="0"/>

    <connection from="-14574696#5" to="-14577982#2" fromLane="0" toLane="0"/>
    <connection from="-14574696#5" to="-14574696#4" fromLane="0" toLane="0"/>
    <connection from="-14574696#5" to="14578013#0" fromLane="0" toLane="0"/>

    <connection from="-14577982#0" to="14577912#1" fromLane="0" toLane="0"/>
    <connection from="-14577982#0" to="14577982#0" fromLane="0" toLane="0"/>

    <connection from="-14577982#1" to="398749582#4" fromLane="0" toLane="0"/>
    <connection from="-14577982#1" to="-14577982#0" fromLane="0" toLane="0"/>
    <connection from="-14577982#1" to="14577982#1" fromLane="0" toLane="0"/>

    <connection from="-14577982#2" to="85518576#5" fromLane="0" toLane="0"/>
    <connection from="-14577982#2" to="-14577982#1" fromLane="0" toLane="0"/>
    <connection from="-14577982#2" to="14577982#2" fromLane="0" toLane="0"/>

    <connection from="-15106270" to="45756883#5" fromLane="0" toLane="0"/>
    <connection from="-15106270" to="-45756883#4" fromLane="0" toLane="0"/>

    <connection from="-15241571" to="15241571" fromLane="0" toLane="0"/>

    <connection from="-198644581#0" to="109462875#0" fromLane="0" toLane="0"/>
    <connection from="-198644581#0" to="-109462894#2" fromLane="0" toLane="0"/>
    <connection from="-198644581#0" to="198644581#0" fromLane="0" toLane="0"/>

    <connection from="-198644581#1" to="-198644581#0" fromLane="0" toLane="0"/>
    <connection from="-198644581#1" to="198644581#1" fromLane="0" toLane="0"/>

    <connection from="-226458104" to="428833182#2" fromLane="0" toLane="2"/>
    <connection from="-226458104" to="226458104" fromLane="0" toLane="0"/>

    <connection from="-23086702" to="23086702" fromLane="1" toLane="1"/>

    <connection from="-23500579" to="23500574#1" fromLane="0" toLane="0"/>
    <connection from="-23500579" to="23500579" fromLane="0" toLane="0"/>

    <connection from="-23689617" to="252386898#2" fromLane="0" toLane="0"/>
    <connection from="-23689617" to="23689617" fromLane="0" toLane="0"/>

    <connection from="-248346183" to="15218911#0" fromLane="0" toLane="0"/>
    <connection from="-248346183" to="4526343" fromLane="0" toLane="0"/>
    <connection from="-248346183" to="-4680951" fromLane="0" toLane="0"/>
    <connection from="-248346183" to="-4680951" fromLane="1" toLane="1"/>
    <connection from="-248346183" to="-4680951" fromLane="2" toLane="2"/>
    <connection from="-248346183" to="208134359#0" fromLane="2" toLane="0"/>
    <connection from="-248346183" to="248346183" fromLane="2" toLane="2"/>

    <connection from="-262302254" to="7971516#0" fromLane="0" toLane="0"/>

    <connection from="-307592940" to="-14574696#5" fromLane="0" toLane="0"/>

    <connection from="-310280048" to="44572473#0" fromLane="0" toLane="0"/>
    <connection from="-310280048" to="-44335829#2" fromLane="0" toLane="0"/>
    <connection from="-310280048" to="-44335829#2" fromLane="1" toLane="1"/>
    <connection from="-310280048" to="310280048" fromLane="1" toLane="1"/>

    <connection from="-320826398" to="-320826399#1" fromLane="0" toLane="0"/>
    <connection from="-320826398" to="320826398" fromLane="0" toLane="0"/>

    <connection from="-320826399#0" to="15212797#0" fromLane="0" toLane="0"/>
    <connection from="-320826399#0" to="-430838879" fromLane="0" toLane="0"/>
    <connection from="-320826399#0" to="320826399#0" fromLane="0" toLane="0"/>

    <connection from="-320826399#1" to="-320826399#0" fromLane="0" toLane="0"/>
    <connection from="-320826399#1" to="15218911#3" fromLane="0" toLane="0"/>
    <connection from="-320826399#1" to="320826399#1" fromLane="0" toLane="0"/>

    <connection from="-320844400#0" to="-4645470#5" fromLane="0" toLane="0"/>
    <connection from="-320844400#0" to="-43405589#2" fromLane="0" toLane="0"/>
    <connection from="-320844400#0" to="320844404#0" fromLane="0" toLane="0"/>
    <connection from="-320844400#0" to="320844400#0" fromLane="0" toLane="0"/>

    <connection from="-320844400#1" to="-320844400#0" fromLane="0" toLane="0"/>
    <connection from="-320844400#1" to="355812629#3" fromLane="0" toLane="0"/>
    <connection from="-320844400#1" to="320844400#1" fromLane="0" toLane="0"/>

    <connection from="-320844400#2" to="109462880#11" fromLane="0" toLane="0"/>
    <connection from="-320844400#2" to="-320844400#1" fromLane="0" toLane="0"/>
    <connection from="-320844400#2" to="320844400#2" fromLane="0" toLane="0"/>

    <connection from="-320844404#0" to="320844400#0" fromLane="0" toLane="0"/>
    <connection from="-320844404#0" to="-4645470#5" fromLane="0" toLane="0"/>
    <connection from="-320844404#0" to="-43405589#2" fromLane="0" toLane="0"/>
    <connection from="-320844404#0" to="320844404#0" fromLane="0" toLane="0"/>

    <connection from="-320844404#1" to="107088310#3" fromLane="0" toLane="0"/>
    <connection from="-320844404#1" to="-320844404#0" fromLane="0" toLane="0"/>
    <connection from="-320844404#1" to="320844404#1" fromLane="0" toLane="0"/>

    <connection from="-320844404#2" to="-320844404#1" fromLane="0" toLane="0"/>
    <connection from="-320844404#2" to="417988253#7" fromLane="0" toLane="0"/>
    <connection from="-320844404#2" to="320844404#2" fromLane="0" toLane="0"/>

    <connection from="-320844404#3" to="-320844404#2" fromLane="0" toLane="0"/>
    <connection from="-320844404#3" to="320844404#3" fromLane="0" toLane="0"/>

    <connection from="-321378019#0" to="140358116#0" fromLane="0" toLane="0"/>
    <connection from="-321378019#0" to="-23086702" fromLane="0" toLane="1"/>
    <connection from="-321378019#0" to="321378019#0" fromLane="0" toLane="0"/>

    <connection from="-321378019#1" to="-321378019#0" fromLane="0" toLane="0"/>
    <connection from="-321378019#1" to="321378019#1" fromLane="0" toLane="0"/>

    <connection from="-341820570" to="341820570" fromLane="0" toLane="0"/>

    <connection from="-355261841#0" to="355261841#0" fromLane="0" toLane="0"/>

    <connection from="-355261841#1" to="-355261841#0" fromLane="0" toLane="0"/>
    <connection from="-355261841#1" to="355261841#1" fromLane="0" toLane="0"/>

    <connection from="-355261841#2" to="-355261841#1" fromLane="0" toLane="0"/>
    <connection from="-355261841#2" to="355261841#2" fromLane="0" toLane="0"/>

    <connection from="-365705720#0" to="-44335831" fromLane="0" toLane="0"/>
    <connection from="-365705720#0" to="365705720#0" fromLane="0" toLane="0"/>

    <connection from="-365705720#1" to="-365705720#0" fromLane="0" toLane="0"/>
    <connection from="-365705720#1" to="365705720#1" fromLane="0" toLane="0"/>

    <connection from="-367214633#0" to="367214632#0" fromLane="0" toLane="0"/>
    <connection from="-367214633#0" to="-417988260" fromLane="0" toLane="0"/>
    <connection from="-367214633#0" to="367214633#0" fromLane="0" toLane="0"/>

    <connection from="-367214633#1" to="-367214633#0" fromLane="0" toLane="0"/>
    <connection from="-367214633#1" to="367214633#1" fromLane="0" toLane="0"/>

    <connection from="-367214633#2" to="-367214633#1" fromLane="0" toLane="0"/>
    <connection from="-367214633#2" to="109462880#3" fromLane="0" toLane="0"/>
    <connection from="-367214633#2" to="367214633#2" fromLane="0" toLane="0"/>

    <connection from="-367214633#3" to="-367214633#2" fromLane="0" toLane="0"/>
    <connection from="-367214633#3" to="367214633#3" fromLane="0" toLane="0"/>

    <connection from="-367214633#4" to="355812629#9" fromLane="0" toLane="0"/>
    <connection from="-367214633#4" to="-367214633#3" fromLane="0" toLane="0"/>
    <connection from="-367214633#4" to="367214633#4" fromLane="0" toLane="0"/>

    <connection from="-367214633#5" to="-367214633#4" fromLane="0" toLane="0"/>
    <connection from="-367214633#5" to="367214633#5" fromLane="0" toLane="0"/>

    <connection from="-417988256#0" to="320362511#5" fromLane="0" toLane="0"/>
    <connection from="-417988256#0" to="-420655420#7" fromLane="0" toLane="0"/>

    <connection from="-417988256#1" to="-417988256#0" fromLane="0" toLane="0"/>
    <connection from="-417988256#1" to="417988256#1" fromLane="0" toLane="0"/>

    <connection from="-417988257" to="-417988256#1" fromLane="0" toLane="0"/>
    <connection from="-417988257" to="23573143#6" fromLane="0" toLane="0"/>

    <connection from="-417988258#0" to="417988259#0" fromLane="0" toLane="0"/>
    <connection from="-417988258#0" to="-417988257" fromLane="0" toLane="0"/>

    <connection from="-417988258#1" to="-417988258#0" fromLane="0" toLane="0"/>
    <connection from="-417988258#1" to="417988258#1" fromLane="0" toLane="0"/>

    <connection from="-417988260" to="-417988258#1" fromLane="0" toLane="0"/>
    <connection from="-417988260" to="429692905#0" fromLane="0" toLane="1"/>
    <connection from="-417988260" to="417988260" fromLane="0" toLane="0"/>

    <connection from="-420262318" to="109462882#5" fromLane="0" toLane="0"/>
    <connection from="-420262318" to="-43405585#1" fromLane="0" toLane="0"/>

    <connection from="-420269263#0" to="79639780" fromLane="0" toLane="0"/>
    <connection from="-420269263#0" to="-44508937" fromLane="0" toLane="0"/>

    <connection from="-420269263#1" to="-420269263#0" fromLane="0" toLane="0"/>
    <connection from="-420269263#1" to="420269263#1" fromLane="0" toLane="0"/>

    <connection from="-420655420#0" to="420655419" fromLane="0" toLane="0"/>
    <connection from="-420655420#0" to="-14567697" fromLane="0" toLane="0"/>

    <connection from="-420655420#1" to="-420655420#0" fromLane="0" toLane="0"/>
    <connection from="-420655420#1" to="420655420#1" fromLane="0" toLane="0"/>

    <connection from="-420655420#2" to="417988255#4" fromLane="0" toLane="0"/>
    <connection from="-420655420#2" to="-420655420#1" fromLane="0" toLane="0"/>
    <connection from="-420655420#2" to="420655420#2" fromLane="0" toLane="0"/>

    <connection from="-420655420#3" to="-420655420#2" fromLane="0" toLane="0"/>
    <connection from="-420655420#3" to="420655420#3" fromLane="0" toLane="0"/>

    <connection from="-420655420#4" to="-420655420#3" fromLane="0" toLane="0"/>
    <connection from="-420655420#4" to="420655420#4" fromLane="0" toLane="0"/>

    <connection from="-420655420#5" to="-420655420#4" fromLane="0" toLane="0"/>
    <connection from="-420655420#5" to="14567301#3" fromLane="0" toLane="0"/>
    <connection from="-420655420#5" to="420655420#5" fromLane="0" toLane="0"/>

    <connection from="-420655420#6" to="-420655420#5" fromLane="0" toLane="0"/>
    <connection from="-420655420#6" to="420655420#6" fromLane="0" toLane="0"/>

    <connection from="-420655420#7" to="-420655420#6" fromLane="0" toLane="0"/>
    <connection from="-420655420#7" to="420655420#7" fromLane="0" toLane="0"/>

    <connection from="-421900008" to="-44536100#3" fromLane="0" toLane="0"/>
    <connection from="-421900008" to="421900005#0" fromLane="0" toLane="1"/>
    <connection from="-421900008" to="421900008" fromLane="0" toLane="0"/>

    <connection from="-428732053" to="-248346183" fromLane="0" toLane="1"/>
    <connection from="-428732053" to="-248346183" fromLane="1" toLane="2"/>
    <connection from="-428732053" to="428732053" fromLane="1" toLane="1"/>

    <connection from="-428833183#0" to="428833182#0" fromLane="0" toLane="0"/>
    <connection from="-428833183#0" to="-421900008" fromLane="0" toLane="0"/>
    <connection from="-428833183#0" to="428833183#0" fromLane="0" toLane="0"/>

    <connection from="-428833183#1" to="-428833183#0" fromLane="0" toLane="0"/>
    <connection from="-428833183#1" to="428833183#1" fromLane="0" toLane="0"/>

    <connection from="-428833183#2" to="-428833183#1" fromLane="0" toLane="0"/>
    <connection from="-428833183#2" to="428833183#2" fromLane="0" toLane="0"/>

    <connection from="-428833183#3" to="341274835#2" fromLane="0" toLane="0"/>
    <connection from="-428833183#3" to="-428833183#2" fromLane="0" toLane="0"/>
    <connection from="-428833183#3" to="428833183#3" fromLane="0" toLane="0"/>

    <connection from="-428833183#4" to="-428833183#3" fromLane="0" toLane="0"/>
    <connection from="-428833183#4" to="428833183#4" fromLane="0" toLane="0"/>

    <connection from="-430838879" to="-420269263#1" fromLane="0" toLane="0"/>
    <connection from="-430838879" to="430838879" fromLane="0" toLane="0"/>

    <connection from="-43405584#0" to="43405582#0" fromLane="0" toLane="2"/>
    <connection from="-43405584#0" to="43405582#0" fromLane="0" toLane="3"/>
    <connection from="-43405584#0" to="43405584#0" fromLane="0" toLane="0"/>

    <connection from="-43405584#1" to="-43405584#0" fromLane="0" toLane="0"/>
    <connection from="-43405584#1" to="43405584#1" fromLane="0" toLane="0"/>

    <connection from="-43405584#2" to="109462875#5" fromLane="0" toLane="0"/>
    <connection from="-43405584#2" to="-43405584#1" fromLane="0" toLane="0"/>
    <connection from="-43405584#2" to="43405584#2" fromLane="0" toLane="0"/>

    <connection from="-43405584#3" to="-43405584#2" fromLane="0" toLane="0"/>
    <connection from="-43405584#3" to="14567301#10" fromLane="0" toLane="0"/>
    <connection from="-43405584#3" to="43405584#3" fromLane="0" toLane="0"/>

    <connection from="-43405585#0" to="43405583#0" fromLane="0" toLane="0"/>
    <connection from="-43405585#0" to="43405583#0" fromLane="0" toLane="1"/>
    <connection from="-43405585#0" to="-43405584#3" fromLane="0" toLane="0"/>

    <connection from="-43405585#1" to="-43405585#0" fromLane="0" toLane="0"/>
    <connection from="-43405585#1" to="23573143#14" fromLane="0" toLane="0"/>
    <connection from="-43405585#1" to="43405585#1" fromLane="0" toLane="0"/>

    <connection from="-43405589#0" to="8029421#0" fromLane="0" toLane="0"/>
    <connection from="-43405589#0" to="43405590#0" fromLane="0" toLane="0"/>
    <connection from="-43405589#0" to="43405589#0" fromLane="0" toLane="0"/>

    <connection from="-43405589#1" to="-43405589#0" fromLane="0" toLane="0"/>
    <connection from="-43405589#1" to="43405589#1" fromLane="0" toLane="0"/>

    <connection from="-43405589#2" to="262609370#5" fromLane="0" toLane="0"/>
    <connection from="-43405589#2" to="-43405589#1" fromLane="0" toLane="0"/>
    <connection from="-43405589#2" to="43405589#2" fromLane="0" toLane="0"/>

    <connection from="-43798349#0" to="24536104#0" fromLane="0" toLane="0"/>
    <connection from="-43798349#0" to="43798349#0" fromLane="1" toLane="1"/>

    <connection from="-43798349#1" to="-43798349#0" fromLane="0" toLane="0"/>
    <connection from="-43798349#1" to="-43798349#0" fromLane="1" toLane="1"/>
    <connection from="-43798349#1" to="43798349#1" fromLane="1" toLane="1"/>

    <connection from="-44335829#0" to="29725408#0" fromLane="0" toLane="0"/>
    <connection from="-44335829#0" to="-44335830" fromLane="0" toLane="0"/>
    <connection from="-44335829#0" to="-44335830" fromLane="1" toLane="1"/>
    <connection from="-44335829#0" to="44335829#0" fromLane="1" toLane="1"/>

    <connection from="-44335829#1" to="-44335829#0" fromLane="0" toLane="0"/>
    <connection from="-44335829#1" to="-44335829#0" fromLane="1" toLane="1"/>
    <connection from="-44335829#1" to="44335829#1" fromLane="1" toLane="1"/>

    <connection from="-44335829#2" to="-44335829#1" fromLane="0" toLane="0"/>
    <connection from="-44335829#2" to="-44335829#1" fromLane="1" toLane="1"/>
    <connection from="-44335829#2" to="44335829#2" fromLane="1" toLane="1"/>

    <connection from="-44335830" to="-44508938#2" fromLane="0" toLane="0"/>
    <connection from="-44335830" to="-44508938#2" fromLane="1" toLane="1"/>
    <connection from="-44335830" to="44335830" fromLane="1" toLane="1"/>

    <connection from="-44335831" to="29725410#0" fromLane="0" toLane="0"/>
    <connection from="-44335831" to="-44335832#1" fromLane="0" toLane="0"/>
    <connection from="-44335831" to="44335831" fromLane="0" toLane="0"/>

    <connection from="-44335832#0" to="-71079626#3" fromLane="0" toLane="0"/>
    <connection from="-44335832#0" to="44335832#0" fromLane="0" toLane="0"/>

    <connection from="-44335832#1" to="-44335832#0" fromLane="0" toLane="0"/>
    <connection from="-44335832#1" to="44335832#1" fromLane="0" toLane="0"/>

    <connection from="-44508937" to="4645470#0" fromLane="0" toLane="0"/>
    <connection from="-44508937" to="-109462892#2" fromLane="0" toLane="0"/>

    <connection from="-44508938#0" to="-131700744" fromLane="0" toLane="0"/>
    <connection from="-44508938#0" to="44508937" fromLane="0" toLane="0"/>
    <connection from="-44508938#0" to="-79639781" fromLane="0" toLane="0"/>
    <connection from="-44508938#0" to="-79639781" fromLane="1" toLane="1"/>

    <connection from="-44508938#1" to="-44508938#0" fromLane="0" toLane="0"/>
    <connection from="-44508938#1" to="-44508938#0" fromLane="1" toLane="1"/>
    <connection from="-44508938#1" to="44508938#1" fromLane="1" toLane="1"/>

    <connection from="-44508938#2" to="-44508938#1" fromLane="0" toLane="0"/>
    <connection from="-44508938#2" to="-44508938#1" fromLane="1" toLane="1"/>
    <connection from="-44508938#2" to="44508938#2" fromLane="1" toLane="1"/>

    <connection from="-44536100#0" to="44536100#0" fromLane="0" toLane="0"/>

    <connection from="-44536100#1" to="-44536100#0" fromLane="0" toLane="0"/>
    <connection from="-44536100#1" to="4387423#6" fromLane="0" toLane="0"/>
    <connection from="-44536100#1" to="44536100#1" fromLane="0" toLane="0"/>

    <connection from="-44536100#2" to="-44536100#1" fromLane="0" toLane="0"/>
    <connection from="-44536100#2" to="44536100#2" fromLane="0" toLane="0"/>

    <connection from="-44536100#3" to="-44536100#2" fromLane="0" toLane="0"/>
    <connection from="-44536100#3" to="44536100#3" fromLane="0" toLane="0"/>

    <connection from="-44536103" to="131451848#0" fromLane="0" toLane="0"/>
    <connection from="-44536103" to="-320844404#3" fromLane="0" toLane="0"/>
    <connection from="-44536103" to="44536103" fromLane="0" toLane="0"/>

    <connection from="-44536104" to="-367214633#5" fromLane="0" toLane="0"/>
    <connection from="-44536104" to="-45314138" fromLane="0" toLane="0"/>

    <connection from="-44572472#0" to="6601787#0" fromLane="0" toLane="0"/>
    <connection from="-44572472#0" to="-310280048" fromLane="0" toLane="0"/>
    <connection from="-44572472#0" to="-310280048" fromLane="1" toLane="1"/>
    <connection from="-44572472#0" to="44572472#0" fromLane="1" toLane="1"/>

    <connection from="-44572472#1" to="-44572472#0" fromLane="0" toLane="0"/>
    <connection from="-44572472#1" to="-44572472#0" fromLane="1" toLane="1"/>
    <connection from="-44572472#1" to="44572472#1" fromLane="1" toLane="1"/>

    <connection from="-44572472#2" to="-44572472#1" fromLane="0" toLane="0"/>
    <connection from="-44572472#2" to="-44572472#1" fromLane="1" toLane="1"/>
    <connection from="-44572472#2" to="44572472#2" fromLane="1" toLane="1"/>

    <connection from="-44572474#0" to="-4688562#2" fromLane="0" toLane="0"/>
    <connection from="-44572474#0" to="-44572472#2" fromLane="0" toLane="0"/>
    <connection from="-44572474#0" to="-44572472#2" fromLane="1" toLane="1"/>

    <connection from="-44572474#1" to="-44572474#0" fromLane="0" toLane="0"/>
    <connection from="-44572474#1" to="-44572474#0" fromLane="1" toLane="1"/>
    <connection from="-44572474#1" to="44572474#1" fromLane="1" toLane="1"/>

    <connection from="-44572475#0" to="44572474#0" fromLane="0" toLane="0"/>
    <connection from="-44572475#0" to="44572474#0" fromLane="1" toLane="1"/>
    <connection from="-44572475#0" to="-4688562#2" fromLane="1" toLane="1"/>

    <connection from="-44572475#1" to="-44572475#0" fromLane="0" toLane="0"/>
    <connection from="-44572475#1" to="-44572475#0" fromLane="1" toLane="1"/>
    <connection from="-44572475#1" to="44572475#1" fromLane="1" toLane="1"/>

    <connection from="-44572475#2" to="-44572475#1" fromLane="0" toLane="0"/>
    <connection from="-44572475#2" to="-44572475#1" fromLane="1" toLane="1"/>
    <connection from="-44572475#2" to="44572475#2" fromLane="1" toLane="1"/>

    <connection from="-451978384" to="451978384" fromLane="0" toLane="0"/>

    <connection from="-45314138" to="-44536103" fromLane="0" toLane="0"/>
    <connection from="-45314138" to="261406866" fromLane="0" toLane="0"/>

    <connection from="-45756883#0" to="-321378019#1" fromLane="0" toLane="0"/>
    <connection from="-45756883#0" to="45756884" fromLane="0" toLane="0"/>
    <connection from="-45756883#0" to="45756883#0" fromLane="0" toLane="0"/>

    <connection from="-45756883#1" to="398749582#3" fromLane="0" toLane="0"/>
    <connection from="-45756883#1" to="-45756883#0" fromLane="0" toLane="0"/>
    <connection from="-45756883#1" to="45756883#1" fromLane="0" toLane="0"/>

    <connection from="-45756883#10" to="-45756883#9" fromLane="0" toLane="0"/>
    <connection from="-45756883#10" to="45756883#10" fromLane="0" toLane="0"/>

    <connection from="-45756883#11" to="-45756883#10" fromLane="0" toLane="0"/>
    <connection from="-45756883#11" to="45756883#11" fromLane="0" toLane="0"/>

    <connection from="-45756883#12" to="-45756883#11" fromLane="0" toLane="0"/>
    <connection from="-45756883#12" to="45756883#12" fromLane="0" toLane="0"/>

    <connection from="-45756883#13" to="-45756883#12" fromLane="0" toLane="0"/>
    <connection from="-45756883#13" to="45756883#13" fromLane="0" toLane="0"/>

    <connection from="-45756883#2" to="-45756883#1" fromLane="0" toLane="0"/>
    <connection from="-45756883#2" to="45756883#2" fromLane="0" toLane="0"/>

    <connection from="-45756883#3" to="85518576#0" fromLane="0" toLane="0"/>
    <connection from="-45756883#3" to="-45756883#2" fromLane="0" toLane="0"/>
    <connection from="-45756883#3" to="45756883#3" fromLane="0" toLane="0"/>

    <connection from="-45756883#4" to="14578216#0" fromLane="0" toLane="0"/>
    <connection from="-45756883#4" to="-45756883#3" fromLane="0" toLane="0"/>
    <connection from="-45756883#4" to="45756883#4" fromLane="0" toLane="0"/>

    <connection from="-45756883#5" to="-45756883#4" fromLane="0" toLane="0"/>
    <connection from="-45756883#5" to="45756883#5" fromLane="0" toLane="0"/>

    <connection from="-45756883#6" to="-45756883#5" fromLane="0" toLane="0"/>
    <connection from="-45756883#6" to="15106231" fromLane="0" toLane="0"/>
    <connection from="-45756883#6" to="45756883#6" fromLane="0" toLane="0"/>

    <connection from="-45756883#7" to="-45756883#6" fromLane="0" toLane="0"/>
    <connection from="-45756883#7" to="45756883#7" fromLane="0" toLane="0"/>

    <connection from="-45756883#8" to="-45756883#7" fromLane="0" toLane="0"/>
    <connection from="-45756883#8" to="45756883#8" fromLane="0" toLane="0"/>

    <connection from="-45756883#9" to="14574531#0" fromLane="0" toLane="0"/>
    <connection from="-45756883#9" to="-45756883#8" fromLane="0" toLane="0"/>
    <connection from="-45756883#9" to="45756883#9" fromLane="0" toLane="0"/>

    <connection from="-462175851" to="462175851" fromLane="1" toLane="1"/>

    <connection from="-462175857#0" to="-121797007" fromLane="0" toLane="0"/>
    <connection from="-462175857#0" to="-121797007" fromLane="1" toLane="1"/>
    <connection from="-462175857#0" to="462175857#0" fromLane="1" toLane="1"/>

    <connection from="-462175857#1" to="-462175857#0" fromLane="0" toLane="0"/>
    <connection from="-462175857#1" to="-462175857#0" fromLane="1" toLane="1"/>
    <connection from="-462175857#1" to="462175857#1" fromLane="1" toLane="1"/>

    <connection from="-4645470#0" to="-109462892#2" fromLane="0" toLane="0"/>
    <connection from="-4645470#0" to="44508938#0" fromLane="0" toLane="1"/>
    <connection from="-4645470#0" to="-131700744" fromLane="0" toLane="0"/>

    <connection from="-4645470#1" to="-4645470#0" fromLane="0" toLane="0"/>
    <connection from="-4645470#1" to="4645470#1" fromLane="0" toLane="0"/>

    <connection from="-4645470#2" to="-4645470#1" fromLane="0" toLane="0"/>
    <connection from="-4645470#2" to="4526344#16" fromLane="0" toLane="0"/>
    <connection from="-4645470#2" to="4645470#2" fromLane="0" toLane="0"/>

    <connection from="-4645470#3" to="208134359#4" fromLane="0" toLane="0"/>
    <connection from="-4645470#3" to="-4645470#2" fromLane="0" toLane="0"/>
    <connection from="-4645470#3" to="4645470#3" fromLane="0" toLane="0"/>

    <connection from="-4645470#4" to="-4645470#3" fromLane="0" toLane="0"/>
    <connection from="-4645470#4" to="4645470#4" fromLane="0" toLane="0"/>

    <connection from="-4645470#5" to="-4645470#4" fromLane="0" toLane="0"/>
    <connection from="-4645470#5" to="133150561#14" fromLane="0" toLane="0"/>
    <connection from="-4645470#5" to="4645470#5" fromLane="0" toLane="0"/>

    <connection from="-4680951" to="4261170" fromLane="0" toLane="0"/>