<?xml version="1.0" encoding="UTF-8"?>

<!-- generated on Sun Feb  5 11:08:31 2017 by SUMO netconvert Version 0.27.1
<?xml version="1.0" encoding="UTF-8"?>

<configuration xmlns:xsi="http://www.w3.org/2001/XMLSchema-instance" xsi:noNamespaceSchemaLocation="http://sumo.dlr.de/xsd/netconvertConfiguration.xsd">

    <input>
        <type-files value="netconvert.osm.types.xml"/>
        <osm-files value="../osm/madrid_barrio_salamanca.osm"/>
    </input>

    <output>
        <output-file value="madrid_barrio_salamanca.net.xml"/>
        <plain-output-prefix value="madrid_barrio_salamanca"/>
        <output.street-names value="true"/>
        <output.original-names value="true"/>
    </output>

    <projection>
        <proj.utm value="true"/>
        <proj.plain-geo value="true"/>
    </projection>

    <edge_removal>
        <remove-edges.by-type value="highway.bridleway,highway.cycleway,highway.footway,highway.ford,highway.path,highway.pedestrian,highway.service,highway.stairs,highway.step,highway.steps,highway.track,railway.light_rail,railway.preserved,railway.rail,railway.subway,railway.tram"/>
    </edge_removal>

</configuration>
-->

<nodes version="0.27" xmlns:xsi="http://www.w3.org/2001/XMLSchema-instance" xsi:noNamespaceSchemaLocation="http://sumo.dlr.de/xsd/nodes_file.xsd">
    <node id="100890239" x="-3.688044" y="40.437801" type="priority"/>
    <node id="100890241" x="-3.686283" y="40.437721" type="traffic_light" tl="100890241"/>
    <node id="100890242" x="-3.685495" y="40.437692" type="priority"/>
    <node id="100890243" x="-3.685205" y="40.437681" type="priority"/>
    <node id="100890244" x="-3.684192" y="40.437647" type="priority"/>
    <node id="100890246" x="-3.683084" y="40.437615" type="traffic_light" tl="100890246"/>
    <node id="100890249" x="-3.677739" y="40.437327" type="traffic_light" tl="100890249"/>
    <node id="100891147" x="-3.680496" y="40.437569" type="traffic_light" tl="100891147"/>
    <node id="100891149" x="-3.685124" y="40.437811" type="traffic_light" tl="100891149"/>
    <node id="100891150" x="-3.685435" y="40.437819" type="traffic_light" tl="100891150"/>
    <node id="100891151" x="-3.686274" y="40.437862" type="traffic_light" tl="100891151"/>
    <node id="100891152" x="-3.687953" y="40.437921" type="priority"/>
    <node id="100891869" x="-3.688226" y="40.437877" type="priority"/>
    <node id="100892261" x="-3.683663" y="40.437680" type="priority"/>
    <node id="1011869670" x="-3.690608" y="40.432975" type="priority"/>
    <node id="1020485503" x="-3.669643" y="40.434141" type="traffic_light" tl="1020485503"/>
    <node id="1034240551" x="-3.668928" y="40.421435" type="unregulated"/>
    <node id="1085874133" x="-3.688491" y="40.431233" type="priority"/>
    <node id="1209330272" x="-3.684184" y="40.421082" type="priority"/>
    <node id="1209330305" x="-3.679831" y="40.421369" type="traffic_light" tl="1209330305"/>
    <node id="1209330640" x="-3.683081" y="40.421556" type="priority"/>
    <node id="1209330717" x="-3.672841" y="40.421298" type="priority"/>
    <node id="1209330860" x="-3.676009" y="40.421432" type="priority"/>
    <node id="1209330887" x="-3.684966" y="40.420897" type="priority"/>
    <node id="1209331443" x="-3.674394" y="40.421333" type="priority"/>
    <node id="1209331642" x="-3.679712" y="40.421734" type="traffic_light" tl="1209331642"/>
    <node id="1209331707" x="-3.669163" y="40.420879" type="unregulated"/>
    <node id="1209331790" x="-3.671067" y="40.421259" type="traffic_light" tl="1209331790"/>
    <node id="1209331987" x="-3.689214" y="40.420049" type="unregulated"/>
    <node id="1209332028" x="-3.687225" y="40.420356" type="priority"/>
    <node id="1209332387" x="-3.685945" y="40.420681" type="priority"/>
    <node id="1223809784" x="-3.688643" y="40.430647" type="traffic_light" tl="1223809784"/>
    <node id="1223809785" x="-3.689374" y="40.434971" type="traffic_light" tl="1223809785"/>
    <node id="1223809787" x="-3.688373" y="40.435284" type="traffic_light" tl="1223809787"/>
    <node id="1223809793" x="-3.688345" y="40.433107" type="traffic_light" tl="1223809793"/>
    <node id="1223809796" x="-3.688881" y="40.433546" type="priority"/>
    <node id="1223809798" x="-3.689628" y="40.435204" type="traffic_light" tl="1223809798"/>
    <node id="1223809804" x="-3.688469" y="40.433808" type="priority"/>
    <node id="1223809808" x="-3.689196" y="40.435142" type="traffic_light" tl="1223809808"/>
    <node id="1223809816" x="-3.688464" y="40.433090" type="traffic_light" tl="1223809816"/>
    <node id="1223809817" x="-3.688321" y="40.433961" type="priority"/>
    <node id="1223809824" x="-3.688955" y="40.430684" type="traffic_light" tl="1223809824"/>
    <node id="1223809828" x="-3.688467" y="40.435456" type="traffic_light" tl="1223809828"/>
    <node id="1223809830" x="-3.689068" y="40.430698" type="traffic_light" tl="1223809830"/>
    <node id="1223809841" x="-3.689087" y="40.434116" type="priority"/>
    <node id="1223809843" x="-3.688207" y="40.434100" type="priority"/>
    <node id="1223809845" x="-3.689381" y="40.430734" type="traffic_light" tl="1223809845"/>
    <node id="1223809847" x="-3.688829" y="40.433078" type="traffic_light" tl="1223809847"/>
    <node id="1278838937" x="-3.688089" y="40.424181" type="traffic_light" tl="1278838937"/>
    <node id="1278838994" x="-3.690179" y="40.425541" type="traffic_light" tl="1278838994"/>
    <node id="1278839005" x="-3.687687" y="40.425378" type="traffic_light" tl="1278839005"/>
    <node id="1278839025" x="-3.688276" y="40.424016" type="traffic_light" tl="1278839025"/>
    <node id="1278839038" x="-3.690239" y="40.425401" type="traffic_light" tl="1278839038"/>
    <node id="1278839042" x="-3.689815" y="40.425441" type="traffic_light" tl="1278839042"/>
    <node id="1278839071" x="-3.690331" y="40.425916" type="traffic_light" tl="1278839071"/>
    <node id="1278839131" x="-3.690379" y="40.424418" type="traffic_light" tl="1278839131"/>
    <node id="1278839146" x="-3.687826" y="40.425582" type="traffic_light" tl="1278839146"/>
    <node id="1359796755" x="-3.689926" y="40.437514" type="priority"/>
    <node id="1359796756" x="-3.689046" y="40.437847" type="priority"/>
    <node id="1377881468" x="-3.672376" y="40.432245" type="priority"/>
    <node id="1377881473" x="-3.682149" y="40.432693" type="priority"/>
    <node id="1377881475" x="-3.684597" y="40.432809" type="priority"/>
    <node id="1377881477" x="-3.682137" y="40.432840" type="priority"/>
    <node id="1377881483" x="-3.683484" y="40.432910" type="priority"/>
    <node id="1377881485" x="-3.684584" y="40.432967" type="priority"/>
    <node id="1377881488" x="-3.685592" y="40.433013" type="priority"/>
    <node id="142266509" x="-3.677094" y="40.437153" type="priority"/>
    <node id="142266511" x="-3.677629" y="40.437660" type="priority"/>
    <node id="142267012" x="-3.677682" y="40.437616" type="priority"/>
    <node id="142267013" x="-3.677152" y="40.437115" type="priority"/>
    <node id="142268406" x="-3.678808" y="40.438804" type="priority"/>
    <node id="142296570" x="-3.687513" y="40.438724" type="unregulated"/>
    <node id="142321412" x="-3.688908" y="40.436340" type="priority"/>
    <node id="143489504" x="-3.680923" y="40.438907" type="priority"/>
    <node id="143490068" x="-3.679100" y="40.438662" type="priority"/>
    <node id="143495443" x="-3.677838" y="40.434666" type="priority"/>
    <node id="143496213" x="-3.676430" y="40.434598" type="priority"/>
    <node id="143496852" x="-3.676343" y="40.435793" type="priority"/>
    <node id="143497066" x="-3.684414" y="40.435000" type="traffic_light" tl="143497066"/>
    <node id="143497929" x="-3.685430" y="40.435043" type="traffic_light" tl="143497929"/>
    <node id="143500432" x="-3.685331" y="40.436251" type="priority"/>
    <node id="143500434" x="-3.684299" y="40.436214" type="priority"/>
    <node id="143500436" x="-3.681875" y="40.436097" type="priority"/>
    <node id="143500437" x="-3.680625" y="40.436038" type="priority"/>
    <node id="143500439" x="-3.679327" y="40.435962" type="priority"/>
    <node id="143500440" x="-3.677736" y="40.435874" type="priority"/>
    <node id="143504242" x="-3.681967" y="40.434884" type="traffic_light" tl="143504242"/>
    <node id="143504243" x="-3.680712" y="40.434819" type="traffic_light" tl="143504243"/>
    <node id="143504736" x="-3.674855" y="40.434866" type="priority"/>
    <node id="143505038" x="-3.686630" y="40.434042" type="priority"/>
    <node id="143508728" x="-3.685514" y="40.433987" type="priority"/>
    <node id="143508729" x="-3.684503" y="40.433937" type="priority"/>
    <node id="143508731" x="-3.682056" y="40.433816" type="priority"/>
    <node id="143508732" x="-3.680798" y="40.433754" type="priority"/>
    <node id="143508733" x="-3.677928" y="40.433612" type="priority"/>
    <node id="143508734" x="-3.676518" y="40.433542" type="priority"/>
    <node id="143508736" x="-3.675005" y="40.433467" type="priority"/>
    <node id="143598548" x="-3.679598" y="40.432703" type="priority"/>
    <node id="143602266" x="-3.672040" y="40.431553" type="priority"/>
    <node id="143602461" x="-3.673539" y="40.431636" type="priority"/>
    <node id="143608990" x="-3.672786" y="40.438313" type="priority"/>
    <node id="143611302" x="-3.671280" y="40.436776" type="priority"/>
    <node id="143611982" x="-3.674274" y="40.437863" type="priority"/>
    <node id="143612525" x="-3.675110" y="40.436532" type="priority"/>
    <node id="143613153" x="-3.674725" y="40.434947" type="priority"/>
    <node id="143613447" x="-3.671517" y="40.437469" type="priority"/>
    <node id="143613589" x="-3.674222" y="40.434469" type="traffic_light" tl="143613589"/>
    <node id="143614088" x="-3.670690" y="40.436345" type="priority"/>
    <node id="143614657" x="-3.670167" y="40.435958" type="priority"/>
    <node id="143614658" x="-3.671846" y="40.437203" type="priority"/>
    <node id="143614660" x="-3.672549" y="40.437738" type="priority"/>
    <node id="143614662" x="-3.673057" y="40.438110" type="priority"/>
    <node id="143615766" x="-3.673001" y="40.433202" type="priority"/>
    <node id="143656433" x="-3.670901" y="40.432832" type="traffic_light" tl="143656433"/>
    <node id="143656434" x="-3.671305" y="40.433335" type="priority"/>
    <node id="143656435" x="-3.671699" y="40.433836" type="priority"/>
    <node id="143656438" x="-3.672117" y="40.434376" type="priority"/>
    <node id="143656936" x="-3.672674" y="40.434785" type="priority"/>
    <node id="143656938" x="-3.673248" y="40.435197" type="priority"/>
    <node id="143656939" x="-3.673842" y="40.435629" type="priority"/>
    <node id="143656940" x="-3.674473" y="40.436082" type="priority"/>
    <node id="143656941" x="-3.675848" y="40.437059" type="priority"/>
    <node id="143657008" x="-3.674926" y="40.437525" type="priority"/>
    <node id="143657496" x="-3.674371" y="40.437099" type="priority"/>
    <node id="143657498" x="-3.673794" y="40.436665" type="priority"/>
    <node id="143657500" x="-3.673144" y="40.436178" type="priority"/>
    <node id="143657503" x="-3.672573" y="40.435759" type="priority"/>
    <node id="143657504" x="-3.671999" y="40.435317" type="priority"/>
    <node id="143657506" x="-3.671448" y="40.434890" type="priority"/>
    <node id="143657951" x="-3.670905" y="40.434233" type="priority"/>
    <node id="143657998" x="-3.670903" y="40.435370" type="priority"/>
    <node id="143658446" x="-3.671434" y="40.435767" type="priority"/>
    <node id="143658447" x="-3.672014" y="40.436203" type="priority"/>
    <node id="143658448" x="-3.672579" y="40.436629" type="priority"/>
    <node id="143658449" x="-3.673240" y="40.437135" type="priority"/>
    <node id="143658450" x="-3.673805" y="40.437534" type="priority"/>
    <node id="143658565" x="-3.673305" y="40.437912" type="priority"/>
    <node id="143658716" x="-3.672799" y="40.437525" type="priority"/>
    <node id="143658774" x="-3.672913" y="40.437399" type="priority"/>
    <node id="143659334" x="-3.672228" y="40.436889" type="priority"/>
    <node id="143659338" x="-3.671088" y="40.436041" type="priority"/>
    <node id="143659340" x="-3.670551" y="40.435654" type="priority"/>
    <node id="143659652" x="-3.670209" y="40.434583" type="priority"/>
    <node id="143659990" x="-3.669762" y="40.434080" type="priority"/>
    <node id="143659993" x="-3.668958" y="40.433149" type="unregulated"/>
    <node id="1447529412" x="-3.690130" y="40.437301" type="priority"/>
    <node id="1449163754" x="-3.675746" y="40.424501" type="traffic_light" tl="1449163754"/>
    <node id="1459328472" x="-3.670842" y="40.434264" type="priority"/>
    <node id="1459328476" x="-3.669977" y="40.434321" type="priority"/>
    <node id="1459328482" x="-3.670570" y="40.434397" type="priority"/>
    <node id="1459328486" x="-3.670344" y="40.434444" type="priority"/>
    <node id="1459328487" x="-3.670449" y="40.434456" type="priority"/>
    <node id="1474148380" x="-3.684177" y="40.437770" type="priority"/>
    <node id="1474148381" x="-3.684178" y="40.438349" type="priority"/>
    <node id="148889926" x="-3.677504" y="40.437676" type="priority"/>
    <node id="148890485" x="-3.676979" y="40.438895" type="priority"/>
    <node id="148891407" x="-3.678102" y="40.438232" type="priority"/>
    <node id="148891539" x="-3.677467" y="40.438607" type="priority"/>
    <node id="149184593" x="-3.671842" y="40.437690" type="priority"/>
    <node id="149189456" x="-3.669773" y="40.437737" type="priority"/>
    <node id="149189986" x="-3.668977" y="40.435186" type="unregulated"/>
    <node id="149204667" x="-3.669368" y="40.436315" type="priority"/>
    <node id="149205252" x="-3.669227" y="40.435884" type="priority"/>
    <node id="149207623" x="-3.669123" y="40.435113" type="priority"/>
    <node id="1493371235" x="-3.668997" y="40.428355" type="unregulated"/>
    <node id="1493669242" x="-3.689737" y="40.426372" type="priority"/>
    <node id="1493669252" x="-3.688130" y="40.432571" type="priority"/>
    <node id="1493669255" x="-3.688111" y="40.433529" type="priority"/>
    <node id="150364127" x="-3.673198" y="40.438899" type="unregulated"/>
    <node id="150384553" x="-3.672516" y="40.425772" type="priority"/>
    <node id="1505106002" x="-3.679643" y="40.430627" type="traffic_light" tl="1505106002"/>
    <node id="1505106003" x="-3.679764" y="40.430637" type="traffic_light" tl="1505106003"/>
    <node id="1505106005" x="-3.679590" y="40.431255" type="traffic_light" tl="1505106005"/>
    <node id="1505106008" x="-3.679413" y="40.431358" type="traffic_light" tl="1505106008"/>
    <node id="1505106009" x="-3.679580" y="40.431366" type="priority"/>
    <node id="1505106010" x="-3.679843" y="40.431379" type="traffic_light" tl="1505106010"/>
    <node id="1505106011" x="-3.679571" y="40.431483" type="traffic_light" tl="1505106011"/>
    <node id="1505106014" x="-3.679695" y="40.431489" type="traffic_light" tl="1505106014"/>
    <node id="1505106015" x="-3.679492" y="40.432422" type="traffic_light" tl="1505106015"/>
    <node id="1505106016" x="-3.679620" y="40.432434" type="traffic_light" tl="1505106016"/>
    <node id="1505106018" x="-3.679308" y="40.432551" type="traffic_light" tl="1505106018"/>
    <node id="1505106020" x="-3.679480" y="40.432560" type="priority"/>
    <node id="1505106022" x="-3.679740" y="40.432573" type="traffic_light" tl="1505106022"/>
    <node id="1505106024" x="-3.679606" y="40.432612" type="traffic_light" tl="1505106024"/>
    <node id="1505106027" x="-3.679472" y="40.432663" type="traffic_light" tl="1505106027"/>
    <node id="1505106030" x="-3.679299" y="40.432687" type="traffic_light" tl="1505106030"/>
    <node id="1505106032" x="-3.679469" y="40.432696" type="priority"/>
    <node id="1505106033" x="-3.679727" y="40.432709" type="traffic_light" tl="1505106033"/>
    <node id="1505106035" x="-3.679458" y="40.432828" type="traffic_light" tl="1505106035"/>
    <node id="1505106036" x="-3.679587" y="40.432838" type="traffic_light" tl="1505106036"/>
    <node id="1505106038" x="-3.679395" y="40.433580" type="traffic_light" tl="1505106038"/>
    <node id="1505106039" x="-3.679528" y="40.433585" type="traffic_light" tl="1505106039"/>
    <node id="1505106041" x="-3.679258" y="40.433677" type="traffic_light" tl="1505106041"/>
    <node id="1505106043" x="-3.679386" y="40.433684" type="priority"/>
    <node id="1505106044" x="-3.679687" y="40.433699" type="traffic_light" tl="1505106044"/>
    <node id="1505106046" x="-3.679509" y="40.433819" type="traffic_light" tl="1505106046"/>
    <node id="1505106049" x="-3.679461" y="40.434278" type="priority"/>
    <node id="1505106053" x="-3.679429" y="40.434610" type="traffic_light" tl="1505106053"/>
    <node id="1505106054" x="-3.679307" y="40.434618" type="traffic_light" tl="1505106054"/>
    <node id="1505106055" x="-3.679134" y="40.434736" type="traffic_light" tl="1505106055"/>
    <node id="1505106056" x="-3.679298" y="40.434747" type="priority"/>
    <node id="1505106058" x="-3.679576" y="40.434763" type="traffic_light" tl="1505106058"/>
    <node id="1505106061" x="-3.679282" y="40.434918" type="traffic_light" tl="1505106061"/>
    <node id="1505106062" x="-3.679405" y="40.434916" type="traffic_light" tl="1505106062"/>
    <node id="1505106064" x="-3.675207" y="40.435399" type="traffic_light" tl="1505106064"/>
    <node id="1505106065" x="-3.679206" y="40.435828" type="traffic_light" tl="1505106065"/>
    <node id="1505106066" x="-3.679068" y="40.435948" type="traffic_light" tl="1505106066"/>
    <node id="1505106067" x="-3.679192" y="40.435954" type="priority"/>
    <node id="1505106068" x="-3.679417" y="40.435968" type="traffic_light" tl="1505106068"/>
    <node id="1505106070" x="-3.679185" y="40.436073" type="traffic_light" tl="1505106070"/>
    <node id="1505106071" x="-3.679317" y="40.436077" type="traffic_light" tl="1505106071"/>
    <node id="1505106081" x="-3.677285" y="40.437118" type="traffic_light" tl="1505106081"/>
    <node id="1505106084" x="-3.677619" y="40.437215" type="traffic_light" tl="1505106084"/>
    <node id="1505106086" x="-3.677069" y="40.437249" type="traffic_light" tl="1505106086"/>
    <node id="1505106087" x="-3.679083" y="40.437288" type="traffic_light" tl="1505106087"/>
    <node id="1505106088" x="-3.679214" y="40.437289" type="traffic_light" tl="1505106088"/>
    <node id="1505106093" x="-3.678886" y="40.437397" type="traffic_light" tl="1505106093"/>
    <node id="1505106096" x="-3.679380" y="40.437414" type="traffic_light" tl="1505106096"/>
    <node id="1505106097" x="-3.677318" y="40.437394" type="traffic_light" tl="1505106097"/>
    <node id="1505106098" x="-3.677933" y="40.437437" type="traffic_light" tl="1505106098"/>
    <node id="1505106101" x="-3.678879" y="40.437490" type="traffic_light" tl="1505106101"/>
    <node id="1505106104" x="-3.679066" y="40.437497" type="priority"/>
    <node id="1505106106" x="-3.679371" y="40.437513" type="traffic_light" tl="1505106106"/>
    <node id="1505106108" x="-3.677756" y="40.437556" type="traffic_light" tl="1505106108"/>
    <node id="1505106110" x="-3.679055" y="40.437619" type="traffic_light" tl="1505106110"/>
    <node id="1505106113" x="-3.677479" y="40.437651" type="traffic_light" tl="1505106113"/>
    <node id="1505106117" x="-3.679180" y="40.437628" type="traffic_light" tl="1505106117"/>
    <node id="1505106119" x="-3.677144" y="40.437602" type="traffic_light" tl="1505106119"/>
    <node id="1505106122" x="-3.677374" y="40.437761" type="traffic_light" tl="1505106122"/>
    <node id="1505106124" x="-3.678407" y="40.438231" type="priority"/>
    <node id="1505106127" x="-3.678967" y="40.438510" type="traffic_light" tl="1505106127"/>
    <node id="1505106128" x="-3.679099" y="40.438521" type="traffic_light" tl="1505106128"/>
    <node id="1505106129" x="-3.675138" y="40.438575" type="priority"/>
    <node id="1505106130" x="-3.678820" y="40.438561" type="traffic_light" tl="1505106130"/>
    <node id="1505106137" x="-3.678936" y="40.438682" type="priority"/>
    <node id="1505106138" x="-3.679029" y="40.438774" type="traffic_light" tl="1505106138"/>
    <node id="1505106139" x="-3.678742" y="40.438838" type="traffic_light" tl="1505106139"/>
    <node id="1505106140" x="-3.678870" y="40.438964" type="unregulated"/>
    <node id="1505106144" x="-3.679207" y="40.438962" type="unregulated"/>
    <node id="1505184312" x="-3.680046" y="40.421843" type="traffic_light" tl="1505184312"/>
    <node id="1505184313" x="-3.680298" y="40.422537" type="traffic_light" tl="1505184313"/>
    <node id="1505184314" x="-3.680603" y="40.422632" type="traffic_light" tl="1505184314"/>
    <node id="1505184315" x="-3.679970" y="40.422902" type="traffic_light" tl="1505184315"/>
    <node id="1505184316" x="-3.680339" y="40.422900" type="traffic_light" tl="1505184316"/>
    <node id="1505184318" x="-3.680291" y="40.423453" type="traffic_light" tl="1505184318"/>
    <node id="1505184320" x="-3.680070" y="40.423570" type="traffic_light" tl="1505184320"/>
    <node id="1505184321" x="-3.680439" y="40.423587" type="traffic_light" tl="1505184321"/>
    <node id="1505184322" x="-3.680224" y="40.423713" type="traffic_light" tl="1505184322"/>
    <node id="1505184323" x="-3.680317" y="40.423724" type="traffic_light" tl="1505184323"/>
    <node id="1505184324" x="-3.680161" y="40.424461" type="priority"/>
    <node id="1505184326" x="-3.680144" y="40.424673" type="priority"/>
    <node id="1505184327" x="-3.680131" y="40.424821" type="traffic_light" tl="1505184327"/>
    <node id="1505184328" x="-3.680228" y="40.424830" type="traffic_light" tl="1505184328"/>
    <node id="1505184329" x="-3.679883" y="40.424990" type="traffic_light" tl="1505184329"/>
    <node id="1505184330" x="-3.680116" y="40.425001" type="priority"/>
    <node id="1505184331" x="-3.680417" y="40.425014" type="traffic_light" tl="1505184331"/>
    <node id="1505184332" x="-3.680103" y="40.425155" type="traffic_light" tl="1505184332"/>
    <node id="1505184334" x="-3.680201" y="40.425163" type="traffic_light" tl="1505184334"/>
    <node id="1505184335" x="-3.680031" y="40.426016" type="traffic_light" tl="1505184335"/>
    <node id="1505184336" x="-3.680132" y="40.426035" type="traffic_light" tl="1505184336"/>
    <node id="1505184338" x="-3.680021" y="40.426134" type="priority"/>
    <node id="1505184339" x="-3.680243" y="40.426144" type="traffic_light" tl="1505184339"/>
    <node id="1505184341" x="-3.680115" y="40.426239" type="traffic_light" tl="1505184341"/>
    <node id="1505184344" x="-3.680082" y="40.426651" type="priority"/>
    <node id="1505184345" x="-3.679942" y="40.427066" type="priority"/>
    <node id="1505184347" x="-3.679915" y="40.427397" type="traffic_light" tl="1505184347"/>
    <node id="1505184350" x="-3.679724" y="40.427518" type="traffic_light" tl="1505184350"/>
    <node id="1505184351" x="-3.679904" y="40.427526" type="priority"/>
    <node id="1505184352" x="-3.680153" y="40.427539" type="priority"/>
    <node id="1505184354" x="-3.679893" y="40.427633" type="traffic_light" tl="1505184354"/>
    <node id="1505184355" x="-3.680004" y="40.427640" type="traffic_light" tl="1505184355"/>
    <node id="1505184356" x="-3.679797" y="40.428794" type="traffic_light" tl="1505184356"/>
    <node id="1505184357" x="-3.679910" y="40.428805" type="traffic_light" tl="1505184357"/>
    <node id="1505184359" x="-3.679634" y="40.428908" type="traffic_light" tl="1505184359"/>
    <node id="1505184360" x="-3.679787" y="40.428916" type="priority"/>
    <node id="1505184361" x="-3.680060" y="40.428931" type="traffic_light" tl="1505184361"/>
    <node id="1505184362" x="-3.679891" y="40.429038" type="traffic_light" tl="1505184362"/>
    <node id="1505184363" x="-3.679732" y="40.429563" type="traffic_light" tl="1505184363"/>
    <node id="1505184365" x="-3.679849" y="40.429575" type="traffic_light" tl="1505184365"/>
    <node id="1505184366" x="-3.679716" y="40.429757" type="priority"/>
    <node id="1505184369" x="-3.679068" y="40.430072" type="traffic_light" tl="1505184369"/>
    <node id="1505184376" x="-3.680419" y="40.430145" type="traffic_light" tl="1505184376"/>
    <node id="1505184378" x="-3.680179" y="40.430221" type="priority"/>
    <node id="1505184380" x="-3.679668" y="40.430330" type="traffic_light" tl="1505184380"/>
    <node id="1505184382" x="-3.679657" y="40.430456" type="priority"/>
    <node id="150540591" x="-3.670842" y="40.425683" type="priority"/>
    <node id="150540626" x="-3.671070" y="40.423152" type="priority"/>
    <node id="150540627" x="-3.670896" y="40.424951" type="priority"/>
    <node id="150540629" x="-3.671004" y="40.423814" type="priority"/>
    <node id="150540745" x="-3.670486" y="40.430024" type="unregulated"/>
    <node id="150541420" x="-3.675484" y="40.435465" type="priority"/>
    <node id="150541463" x="-3.670413" y="40.430060" type="unregulated"/>
    <node id="150541475" x="-3.675351" y="40.435543" type="priority"/>
    <node id="1537861047" x="-3.670508" y="40.431899" type="priority"/>
    <node id="1555729943" x="-3.686336" y="40.436305" type="priority"/>
    <node id="1555729951" x="-3.688211" y="40.422525" type="priority"/>
    <node id="1555729961" x="-3.687732" y="40.425380" type="priority"/>
    <node id="1555729967" x="-3.688001" y="40.423960" type="priority"/>
    <node id="1555729975" x="-3.686236" y="40.437719" type="priority"/>
    <node id="1555729980" x="-3.687556" y="40.426492" type="priority"/>
    <node id="1555729985" x="-3.688394" y="40.421183" type="priority"/>
    <node id="1572572843" x="-3.669001" y="40.423708" type="unregulated"/>
    <node id="1572572873" x="-3.669038" y="40.424464" type="priority"/>
    <node id="1572572891" x="-3.670812" y="40.424946" type="unregulated"/>
    <node id="158849456" x="-3.671194" y="40.421350" type="traffic_light" tl="158849456"/>
    <node id="1689543016" x="-3.687011" y="40.429264" type="priority"/>
    <node id="1689543018" x="-3.686758" y="40.430454" type="priority"/>
    <node id="1689543023" x="-3.686714" y="40.431707" type="priority"/>
    <node id="1689543025" x="-3.686555" y="40.432904" type="traffic_light" tl="1689543025"/>
    <node id="1689543046" x="-3.686545" y="40.433022" type="traffic_light" tl="1689543046"/>
    <node id="1689543052" x="-3.686505" y="40.434036" type="priority"/>
    <node id="1689543057" x="-3.686378" y="40.435091" type="traffic_light" tl="1689543057"/>
    <node id="171946" x="-3.684454" y="40.421253" type="traffic_light" tl="171946"/>
    <node id="1759501456" x="-3.690003" y="40.436503" type="priority"/>
    <node id="1759501461" x="-3.689890" y="40.436659" type="priority"/>
    <node id="1759501463" x="-3.690688" y="40.437337" type="unregulated"/>
    <node id="1759501468" x="-3.690044" y="40.437438" type="priority"/>
    <node id="1759501507" x="-3.690389" y="40.437728" type="traffic_light" tl="1759501507"/>
    <node id="1759501511" x="-3.690054" y="40.437740" type="traffic_light" tl="1759501511"/>
    <node id="1759501517" x="-3.690292" y="40.437890" type="traffic_light" tl="1759501517"/>
    <node id="1759501519" x="-3.689995" y="40.437890" type="traffic_light" tl="1759501519"/>
    <node id="1759501542" x="-3.689991" y="40.437915" type="traffic_light" tl="1759501542"/>
    <node id="1759501646" x="-3.690403" y="40.438480" type="traffic_light" tl="1759501646"/>
    <node id="1759501673" x="-3.690570" y="40.438809" type="unregulated"/>
    <node id="1760085654" x="-3.690711" y="40.425693" type="unregulated"/>
    <node id="1760085655" x="-3.689862" y="40.425849" type="traffic_light" tl="1760085655"/>
    <node id="1760085659" x="-3.690562" y="40.426261" type="priority"/>
    <node id="1760085662" x="-3.690407" y="40.426824" type="priority"/>
    <node id="1760085663" x="-3.690014" y="40.427114" type="priority"/>
    <node id="1760085665" x="-3.690313" y="40.427184" type="priority"/>
    <node id="1760085666" x="-3.689685" y="40.427886" type="traffic_light" tl="1760085666"/>
    <node id="1760085667" x="-3.689222" y="40.427962" type="traffic_light" tl="1760085667"/>
    <node id="1760085668" x="-3.689492" y="40.427972" type="traffic_light" tl="1760085668"/>
    <node id="1760085669" x="-3.689951" y="40.427986" type="traffic_light" tl="1760085669"/>
    <node id="1760085670" x="-3.689303" y="40.428060" type="traffic_light" tl="1760085670"/>
    <node id="1760085673" x="-3.689628" y="40.428105" type="traffic_light" tl="1760085673"/>
    <node id="1760085674" x="-3.690070" y="40.428109" type="traffic_light" tl="1760085674"/>
    <node id="1760085675" x="-3.689748" y="40.428122" type="traffic_light" tl="1760085675"/>
    <node id="1760085677" x="-3.689172" y="40.428517" type="priority"/>
    <node id="1760085679" x="-3.689898" y="40.428754" type="priority"/>
    <node id="1760085686" x="-3.689806" y="40.429210" type="traffic_light" tl="1760085686"/>
    <node id="1760085688" x="-3.688984" y="40.429225" type="traffic_light" tl="1760085688"/>
    <node id="1760085689" x="-3.689331" y="40.429242" type="traffic_light" tl="1760085689"/>
    <node id="1760085691" x="-3.689447" y="40.429260" type="traffic_light" tl="1760085691"/>
    <node id="1760085693" x="-3.689134" y="40.429367" type="traffic_light" tl="1760085693"/>
    <node id="1760085694" x="-3.689583" y="40.429401" type="traffic_light" tl="1760085694"/>
    <node id="1760085695" x="-3.689883" y="40.429416" type="unregulated"/>
    <node id="1760085696" x="-3.689391" y="40.429473" type="traffic_light" tl="1760085696"/>
    <node id="1760085698" x="-3.689702" y="40.429521" type="traffic_light" tl="1760085698"/>
    <node id="1760085699" x="-3.689022" y="40.430424" type="traffic_light" tl="1760085699"/>
    <node id="1760085700" x="-3.688698" y="40.430439" type="traffic_light" tl="1760085700"/>
    <node id="1760085702" x="-3.688842" y="40.430563" type="priority"/>
    <node id="1760085703" x="-3.689273" y="40.430594" type="traffic_light" tl="1760085703"/>