<?xml version="1.0" encoding="UTF-8"?>

<!-- generated on Sun Feb  5 11:08:31 2017 by SUMO netconvert Version 0.27.1
<?xml version="1.0" encoding="UTF-8"?>

<configuration xmlns:xsi="http://www.w3.org/2001/XMLSchema-instance" xsi:noNamespaceSchemaLocation="http://sumo.dlr.de/xsd/netconvertConfiguration.xsd">

    <input>
        <type-files value="netconvert.osm.types.xml"/>
        <osm-files value="../osm/madrid_barrio_salamanca.osm"/>
    </input>

    <output>
        <output-file value="madrid_barrio_salamanca.net.xml"/>
        <plain-output-prefix value="madrid_barrio_salamanca"/>
        <output.street-names value="true"/>
        <output.original-names value="true"/>
    </output>

    <projection>
        <proj.utm value="true"/>
        <proj.plain-geo value="true"/>
    </projection>

    <edge_removal>
        <remove-edges.by-type value="highway.bridleway,highway.cycleway,highway.footway,highway.ford,highway.path,highway.pedestrian,highway.service,highway.stairs,highway.step,highway.steps,highway.track,railway.light_rail,railway.preserved,railway.rail,railway.subway,railway.tram"/>
    </edge_removal>

</configuration>
-->

<net version="0.27" xmlns:xsi="http://www.w3.org/2001/XMLSchema-instance" xsi:noNamespaceSchemaLocation="http://sumo.dlr.de/xsd/net_file.xsd">

    <location netOffset="-441408.09,-4474599.01" convBoundary="0.00,0.00,1852.15,2103.89" origBoundary="-3.690714,40.420045,-3.668921,40.438977" projParameter="+proj=utm +zone=30 +ellps=WGS84 +datum=WGS84 +units=m +no_defs"/>

    <type id="highway.bridleway" priority="1" numLanes="1" speed="2.78" allow="pedestrian" oneway="1" width="2.00"/>
    <type id="highway.bus_guideway" priority="1" numLanes="1" speed="8.33" allow="bus" oneway="1"/>
    <type id="highway.cycleway" priority="1" numLanes="1" speed="5.56" allow="bicycle" oneway="0" width="1.00"/>
    <type id="highway.footway" priority="1" numLanes="1" speed="2.78" allow="pedestrian" oneway="1" width="2.00"/>
    <type id="highway.ford" priority="1" numLanes="1" speed="2.78" allow="army" oneway="0"/>
    <type id="highway.living_street" priority="3" numLanes="1" speed="2.78" disallow="tram rail_urban rail rail_electric ship" oneway="0"/>
    <type id="highway.motorway" priority="13" numLanes="2" speed="44.44" allow="private emergency authority army vip passenger hov taxi bus coach delivery truck trailer motorcycle evehicle custom1 custom2" oneway="1"/>
    <type id="highway.motorway_link" priority="12" numLanes="1" speed="22.22" allow="private emergency authority army vip passenger hov taxi bus coach delivery truck trailer motorcycle evehicle custom1 custom2" oneway="1"/>
    <type id="highway.path" priority="1" numLanes="1" speed="2.78" allow="bicycle pedestrian" oneway="1" width="2.00"/>
    <type id="highway.pedestrian" priority="1" numLanes="1" speed="2.78" allow="pedestrian" oneway="1" width="2.00"/>
    <type id="highway.primary" priority="9" numLanes="2" speed="27.78" disallow="tram rail_urban rail rail_electric ship" oneway="0"/>
    <type id="highway.primary_link" priority="8" numLanes="1" speed="22.22" disallow="tram rail_urban rail rail_electric ship" oneway="0"/>
    <type id="highway.raceway" priority="14" numLanes="2" speed="83.33" allow="vip" oneway="0"/>
    <type id="highway.residential" priority="4" numLanes="1" speed="13.89" disallow="tram rail_urban rail rail_electric ship" oneway="0"/>
    <type id="highway.secondary" priority="7" numLanes="2" speed="27.78" disallow="tram rail_urban rail rail_electric ship" oneway="0"/>
    <type id="highway.secondary_link" priority="6" numLanes="1" speed="22.22" disallow="tram rail_urban rail rail_electric ship" oneway="0"/>
    <type id="highway.service" priority="2" numLanes="1" speed="5.56" allow="delivery bicycle pedestrian" oneway="0"/>
    <type id="highway.services" priority="1" numLanes="1" speed="8.33" disallow="tram rail_urban rail rail_electric ship" oneway="0"/>
    <type id="highway.stairs" priority="1" numLanes="1" speed="1.39" allow="pedestrian" oneway="1" width="2.00"/>
    <type id="highway.step" priority="1" numLanes="1" speed="1.39" allow="pedestrian" oneway="1" width="2.00"/>
    <type id="highway.steps" priority="1" numLanes="1" speed="1.39" allow="pedestrian" oneway="1" width="2.00"/>
    <type id="highway.tertiary" priority="6" numLanes="1" speed="22.22" disallow="tram rail_urban rail rail_electric ship" oneway="0"/>
    <type id="highway.tertiary_link" priority="5" numLanes="1" speed="22.22" disallow="tram rail_urban rail rail_electric ship" oneway="0"/>
    <type id="highway.track" priority="1" numLanes="1" speed="5.56" disallow="tram rail_urban rail rail_electric ship" oneway="0"/>
    <type id="highway.trunk" priority="11" numLanes="2" speed="27.78" disallow="tram rail_urban rail rail_electric bicycle pedestrian ship" oneway="0"/>
    <type id="highway.trunk_link" priority="10" numLanes="1" speed="22.22" disallow="tram rail_urban rail rail_electric bicycle pedestrian ship" oneway="0"/>
    <type id="highway.unclassified" priority="5" numLanes="1" speed="13.89" disallow="tram rail_urban rail rail_electric ship" oneway="0"/>
    <type id="highway.unsurfaced" priority="1" numLanes="1" speed="8.33" disallow="tram rail_urban rail rail_electric ship" oneway="0"/>
    <type id="railway.light_rail" priority="15" numLanes="1" speed="27.78" allow="rail_urban" oneway="1"/>
    <type id="railway.preserved" priority="15" numLanes="1" speed="27.78" allow="rail" oneway="1"/>
    <type id="railway.rail" priority="15" numLanes="1" speed="83.33" allow="rail rail_electric" oneway="1"/>
    <type id="railway.subway" priority="15" numLanes="1" speed="27.78" allow="rail_urban" oneway="1"/>
    <type id="railway.tram" priority="15" numLanes="1" speed="13.89" allow="tram" oneway="1"/>

    <edge id=":100890239_0" function="internal">
        <lane id=":100890239_0_0" index="0" disallow="tram rail_urban rail rail_electric ship" speed="13.89" length="5.65" shape="234.96,1973.94 235.84,1975.43 236.83,1976.48 237.93,1977.07 239.14,1977.21"/>
    </edge>
    <edge id=":100890239_1" function="internal">
        <lane id=":100890239_1_0" index="0" disallow="tram rail_urban rail rail_electric ship" speed="13.89" length="6.41" shape="232.75,1977.64 239.14,1977.21"/>
        <lane id=":100890239_1_1" index="1" disallow="tram rail_urban rail rail_electric ship" speed="13.89" length="6.41" shape="232.97,1980.93 239.36,1980.50"/>
    </edge>
    <edge id=":100890241_0" function="internal">
        <lane id=":100890241_0_0" index="0" disallow="tram rail_urban rail rail_electric ship" speed="13.89" length="12.64" shape="386.87,1976.51 386.43,1973.36 385.77,1970.82 385.07,1968.04 384.52,1964.17"/>
        <lane id=":100890241_0_1" index="1" disallow="tram rail_urban rail rail_electric ship" speed="13.89" length="12.64" shape="386.87,1976.51 386.95,1973.32 387.41,1970.69 387.84,1967.82 387.81,1963.89"/>
    </edge>
    <edge id=":100890241_2" function="internal">
        <lane id=":100890241_2_0" index="0" disallow="tram rail_urban rail rail_electric ship" speed="13.89" length="8.15" shape="386.87,1976.51 386.94,1973.88 387.57,1971.97 388.76,1970.77 390.50,1970.27"/>
    </edge>
    <edge id=":100890241_3" function="internal">
        <lane id=":100890241_3_0" index="0" disallow="tram rail_urban rail rail_electric ship" speed="18.05" length="11.56" shape="390.89,1974.97 391.36,1974.41 391.55,1972.32 391.46,1968.72 391.10,1963.61"/>
    </edge>
    <edge id=":100890241_4" function="internal">
        <lane id=":100890241_4_0" index="0" disallow="tram rail_urban rail rail_electric ship" speed="13.89" length="5.02" shape="378.38,1967.79 379.73,1967.50 380.65,1966.85 381.15,1965.83 381.23,1964.46"/>
    </edge>
    <edge id=":100890241_5" function="internal">
        <lane id=":100890241_5_0" index="0" disallow="tram rail_urban rail rail_electric ship" speed="13.89" length="10.95" shape="378.38,1967.79 388.33,1967.11"/>
        <lane id=":100890241_5_1" index="1" disallow="tram rail_urban rail rail_electric ship" speed="13.89" length="10.95" shape="378.60,1971.08 390.50,1970.27"/>
    </edge>
    <edge id=":100890242_0" function="internal">
        <lane id=":100890242_0_0" index="0" disallow="tram rail_urban rail rail_electric ship" speed="13.89" length="5.00" shape="463.29,1962.98 468.27,1962.67"/>
        <lane id=":100890242_0_1" index="1" disallow="tram rail_urban rail rail_electric ship" speed="13.89" length="5.00" shape="463.47,1966.28 468.46,1965.97"/>
    </edge>
    <edge id=":100890242_2" function="internal">
        <lane id=":100890242_2_0" index="0" disallow="tram rail_urban rail rail_electric ship" speed="18.05" length="5.91" shape="463.47,1966.28 464.99,1966.62 465.79,1967.58 466.57,1968.73 468.03,1969.61"/>
    </edge>
    <edge id=":100890243_0" function="internal">
        <lane id=":100890243_0_0" index="0" disallow="tram rail_urban rail rail_electric ship" speed="13.89" length="5.03" shape="477.62,1959.00 477.91,1960.36 478.56,1961.30 479.56,1961.84 480.91,1961.97"/>
    </edge>
    <edge id=":100890243_1" function="internal">
        <lane id=":100890243_1_0" index="0" disallow="tram rail_urban rail rail_electric ship" speed="13.89" length="6.18" shape="474.73,1962.30 480.91,1961.97"/>
        <lane id=":100890243_1_1" index="1" disallow="tram rail_urban rail rail_electric ship" speed="13.89" length="6.18" shape="474.92,1965.60 481.08,1965.26"/>
    </edge>
    <edge id=":100890244_0" function="internal">
        <lane id=":100890244_0_0" index="0" disallow="tram rail_urban rail rail_electric ship" speed="13.89" length="5.02" shape="560.63,1957.87 561.98,1957.61 562.92,1956.98 563.44,1955.97 563.55,1954.60"/>
    </edge>
    <edge id=":100890244_1" function="internal">
        <lane id=":100890244_1_0" index="0" disallow="tram rail_urban rail rail_electric ship" speed="13.89" length="6.22" shape="560.63,1957.87 566.83,1957.54"/>
        <lane id=":100890244_1_1" index="1" disallow="tram rail_urban rail rail_electric ship" speed="13.89" length="6.22" shape="560.80,1961.17 567.02,1960.83"/>
    </edge>
    <edge id=":100890246_0" function="internal">
        <lane id=":100890246_0_0" index="0" disallow="tram rail_urban rail rail_electric ship" speed="13.89" length="5.02" shape="662.23,1949.80 662.56,1951.14 663.23,1952.05 664.26,1952.52 665.63,1952.57"/>
    </edge>
    <edge id=":100890246_1" function="internal">
        <lane id=":100890246_1_0" index="0" disallow="tram rail_urban rail rail_electric ship" speed="13.89" length="9.22" shape="662.23,1949.80 662.93,1959.22"/>
        <lane id=":100890246_1_1" index="1" disallow="tram rail_urban rail rail_electric ship" speed="13.89" length="9.22" shape="658.95,1950.11 659.63,1959.39"/>
        <lane id=":100890246_1_2" index="2" disallow="tram rail_urban rail rail_electric ship" speed="13.89" length="9.22" shape="655.66,1950.43 656.34,1959.55"/>
        <lane id=":100890246_1_3" index="3" disallow="tram rail_urban rail rail_electric ship" speed="13.89" length="9.22" shape="652.38,1950.74 653.04,1959.72"/>
    </edge>
    <edge id=":100890246_5" function="internal">
        <lane id=":100890246_5_0" index="0" disallow="tram rail_urban rail rail_electric ship" speed="13.89" length="16.47" shape="649.25,1954.63 665.63,1952.57"/>
        <lane id=":100890246_5_1" index="1" disallow="tram rail_urban rail rail_electric ship" speed="13.89" length="16.47" shape="649.71,1957.90 666.00,1955.85"/>
    </edge>
    <edge id=":100890249_0" function="internal">
        <lane id=":100890249_0_0" index="0" disallow="tram rail_urban rail rail_electric ship" speed="13.89" length="0.10" shape="1110.60,1916.32 1110.60,1916.32"/>
        <lane id=":100890249_0_1" index="1" disallow="tram rail_urban rail rail_electric ship" speed="13.89" length="0.10" shape="1110.88,1919.61 1110.88,1919.61"/>
        <lane id=":100890249_0_2" index="2" disallow="tram rail_urban rail rail_electric ship" speed="13.89" length="0.10" shape="1111.17,1922.90 1111.16,1922.90"/>
    </edge>
    <edge id=":100891147_0" function="internal">
        <lane id=":100891147_0_0" index="0" disallow="tram rail_urban rail rail_electric ship" speed="13.89" length="5.06" shape="880.64,1951.30 879.27,1951.60 878.33,1952.26 877.82,1953.27 877.73,1954.65"/>
    </edge>
    <edge id=":100891147_1" function="internal">
        <lane id=":100891147_1_0" index="0" disallow="tram rail_urban rail rail_electric ship" speed="13.89" length="6.24" shape="880.64,1951.30 874.38,1951.74"/>
        <lane id=":100891147_1_1" index="1" disallow="tram rail_urban rail rail_electric ship" speed="13.89" length="6.24" shape="880.40,1948.01 874.17,1948.44"/>
        <lane id=":100891147_1_2" index="2" disallow="tram rail_urban rail rail_electric ship" speed="13.89" length="6.24" shape="880.16,1944.72 873.96,1945.15"/>
    </edge>
    <edge id=":100891147_4" function="internal">
        <lane id=":100891147_4_0" index="0" disallow="tram rail_urban rail rail_electric ship" speed="13.89" length="12.66" shape="876.88,1942.02 877.73,1954.65"/>
    </edge>
    <edge id=":100891147_5" function="internal">
        <lane id=":100891147_5_0" index="0" disallow="tram rail_urban rail rail_electric ship" speed="13.89" length="6.28" shape="876.88,1942.02 876.83,1944.76 876.36,1946.74 875.47,1947.97 874.17,1948.44"/>
        <lane id=":100891147_5_1" index="1" disallow="tram rail_urban rail rail_electric ship" speed="13.89" length="6.28" shape="876.88,1942.02 876.75,1943.31 876.22,1944.27 875.29,1944.88 873.96,1945.15"/>
    </edge>
    <edge id=":100891149_0" function="internal">
        <lane id=":100891149_0_0" index="0" disallow="tram rail_urban rail rail_electric ship" speed="13.89" length="23.11" shape="497.55,1980.64 474.40,1980.22"/>
        <lane id=":100891149_0_1" index="1" disallow="tram rail_urban rail rail_electric ship" speed="13.89" length="23.11" shape="497.33,1977.35 474.27,1976.92"/>
    </edge>
    <edge id=":100891149_2" function="internal">
        <lane id=":100891149_2_0" index="0" disallow="tram rail_urban rail rail_electric ship" speed="22.22" length="24.04" shape="475.09,1973.16 496.41,1984.52"/>
        <lane id=":100891149_2_1" index="1" disallow="tram rail_urban rail rail_electric ship" speed="22.22" length="24.04" shape="475.09,1973.16 478.87,1975.47 483.43,1978.80 488.66,1982.81 494.46,1987.18"/>
    </edge>
    <edge id=":100891150_0" function="internal">
        <lane id=":100891150_0_0" index="0" disallow="tram rail_urban rail rail_electric ship" speed="18.05" length="49.20" shape="465.69,1984.35 457.72,1983.00 443.38,1982.94 427.94,1983.57 416.64,1984.29"/>
    </edge>
    <edge id=":100891150_1" function="internal">
        <lane id=":100891150_1_0" index="0" disallow="tram rail_urban rail rail_electric ship" speed="22.22" length="49.75" shape="465.69,1984.35 457.00,1982.07 441.45,1979.91 425.72,1978.31 416.49,1977.72"/>
    </edge>
    <edge id=":100891150_2" function="internal">
        <lane id=":100891150_2_0" index="0" disallow="tram rail_urban rail rail_electric ship" speed="13.89" length="50.44" shape="466.85,1980.52 416.64,1984.29"/>
        <lane id=":100891150_2_1" index="1" disallow="tram rail_urban rail rail_electric ship" speed="13.89" length="50.44" shape="466.72,1977.22 416.33,1981.00"/>
    </edge>
    <edge id=":100891150_4" function="internal">
        <lane id=":100891150_4_0" index="0" disallow="tram rail_urban rail rail_electric ship" speed="18.05" length="50.23" shape="466.72,1977.22 416.49,1977.72"/>
    </edge>
    <edge id=":100891151_0" function="internal">
        <lane id=":100891151_0_0" index="0" disallow="tram rail_urban rail rail_electric ship" speed="13.89" length="5.12" shape="387.79,1989.35 387.49,1988.00 386.82,1987.06 385.78,1986.53 384.37,1986.41"/>
    </edge>
    <edge id=":100891151_1" function="internal">
        <lane id=":100891151_1_0" index="0" disallow="tram rail_urban rail rail_electric ship" speed="13.89" length="9.55" shape="387.79,1989.35 387.10,1979.83"/>
    </edge>
    <edge id=":100891151_2" function="internal">
        <lane id=":100891151_2_0" index="0" disallow="tram rail_urban rail rail_electric ship" speed="13.89" length="6.29" shape="390.67,1986.05 384.37,1986.41"/>
        <lane id=":100891151_2_1" index="1" disallow="tram rail_urban rail rail_electric ship" speed="13.89" length="6.29" shape="390.46,1982.75 384.20,1983.12"/>
    </edge>
    <edge id=":100891152_0" function="internal">
        <lane id=":100891152_0_0" index="0" disallow="tram rail_urban rail rail_electric ship" speed="13.89" length="5.70" shape="247.42,1997.29 246.57,1995.77 245.59,1994.70 244.48,1994.08 243.25,1993.93"/>
    </edge>
    <edge id=":100891152_1" function="internal">
        <lane id=":100891152_1_0" index="0" disallow="tram rail_urban rail rail_electric ship" speed="13.89" length="6.43" shape="249.67,1993.58 243.25,1993.93"/>
        <lane id=":100891152_1_1" index="1" disallow="tram rail_urban rail rail_electric ship" speed="13.89" length="6.43" shape="249.50,1990.29 243.07,1990.63"/>
    </edge>
    <edge id=":100891869_0" function="internal">
        <lane id=":100891869_0_0" index="0" disallow="tram rail_urban rail rail_electric ship" speed="13.89" length="0.10" shape="221.81,1985.91 221.77,1985.91"/>
        <lane id=":100891869_0_1" index="1" disallow="tram rail_urban rail rail_electric ship" speed="13.89" length="0.10" shape="221.97,1989.21 222.00,1989.21"/>
    </edge>
    <edge id=":100892261_0" function="internal">
        <lane id=":100892261_0_0" index="0" disallow="tram rail_urban rail rail_electric ship" speed="13.89" length="0.20" shape="608.47,1960.96 608.57,1960.95"/>
        <lane id=":100892261_0_1" index="1" disallow="tram rail_urban rail rail_electric ship" speed="13.89" length="0.20" shape="608.73,1964.25 609.03,1964.22"/>
    </edge>
    <edge id=":1011869670_0" function="internal">
        <lane id=":1011869670_0_0" index="0" disallow="tram rail_urban rail rail_electric ship" speed="13.89" length="4.82" shape="15.53,1446.66 14.33,1445.79 13.95,1444.95 14.39,1444.15 15.66,1443.37"/>
    </edge>
    <edge id=":1020485503_0" function="internal">
        <lane id=":1020485503_0_0" index="0" disallow="tram rail_urban rail rail_electric ship" speed="13.89" length="0.10" shape="1793.92,1562.06 1793.92,1562.06"/>
        <lane id=":1020485503_0_1" index="1" disallow="tram rail_urban rail rail_electric ship" speed="13.89" length="0.10" shape="1795.73,1559.31 1795.73,1559.31"/>
    </edge>
    <edge id=":1085874133_0" function="internal">
        <lane id=":1085874133_0_0" index="0" disallow="tram rail_urban rail rail_electric ship" speed="13.89" length="5.21" shape="193.06,1247.35 193.52,1248.58 194.33,1249.42 195.48,1249.88 196.97,1249.95"/>
    </edge>
    <edge id=":1085874133_1" function="internal">
        <lane id=":1085874133_1_0" index="0" disallow="tram rail_urban rail rail_electric ship" speed="13.89" length="6.24" shape="193.06,1247.35 194.34,1253.46"/>
    </edge>
    <edge id=":1209330272_0" function="internal">
        <lane id=":1209330272_0_0" index="0" disallow="tram rail_urban rail rail_electric ship" speed="13.89" length="13.24" shape="551.83,121.35 547.95,119.83 544.55,119.21 541.64,119.49 539.22,120.66"/>
    </edge>
    <edge id=":1209330272_1" function="internal">
        <lane id=":1209330272_1_0" index="0" disallow="tram rail_urban rail rail_electric ship" speed="13.89" length="13.27" shape="551.83,121.35 539.88,115.59"/>
    </edge>
    <edge id=":1209330305_0" function="internal">
        <lane id=":1209330305_0_0" index="0" disallow="tram rail_urban rail rail_electric ship" speed="13.89" length="0.62" shape="923.01,150.19 922.68,151.17"/>
        <lane id=":1209330305_0_1" index="1" disallow="tram rail_urban rail rail_electric ship" speed="13.89" length="0.62" shape="919.84,149.31 919.63,149.89"/>
        <lane id=":1209330305_0_2" index="2" disallow="tram rail_urban rail rail_electric ship" speed="13.89" length="0.62" shape="916.66,148.43 916.59,148.62"/>
    </edge>
    <edge id=":1209330640_0" function="internal">
        <lane id=":1209330640_0_0" index="0" disallow="tram rail_urban rail rail_electric ship" speed="13.89" length="7.62" shape="646.31,177.16 645.47,175.06 644.80,173.59 643.81,172.41 642.00,171.17"/>
    </edge>
    <edge id=":1209330640_1" function="internal">
        <lane id=":1209330640_1_0" index="0" disallow="tram rail_urban rail rail_electric ship" speed="13.89" length="7.49" shape="648.92,174.04 642.00,171.17"/>
    </edge>
    <edge id=":1209330640_2" function="internal">
        <lane id=":1209330640_2_0" index="0" disallow="tram rail_urban rail rail_electric ship" speed="13.89" length="2.88" shape="647.41,169.81 645.90,170.90 644.96,171.29"/>
    </edge>
    <edge id=":1209330640_3" function="internal">
        <lane id=":1209330640_3_0" index="0" speed="13.89" length="3.08" shape="644.96,171.29 644.49,171.49 643.19,171.58 642.00,171.17"/>
    </edge>
    <edge id=":1209330717_0" function="internal">
        <lane id=":1209330717_0_0" index="0" disallow="tram rail_urban rail rail_electric ship" speed="13.89" length="0.10" shape="1512.73,137.22 1512.73,137.22"/>
    </edge>
    <edge id=":1209330860_0" function="internal">
        <lane id=":1209330860_0_0" index="0" disallow="tram rail_urban rail rail_electric ship" speed="13.89" length="0.10" shape="1242.42,154.32 1242.41,154.24"/>
    </edge>
    <edge id=":1209330860_1" function="internal">
        <lane id=":1209330860_1_0" index="0" disallow="tram rail_urban rail rail_electric ship" speed="13.89" length="2.41" shape="1242.42,154.32 1243.10,153.00 1243.87,152.50"/>
    </edge>
    <edge id=":1209330860_4" function="internal">
        <lane id=":1209330860_4_0" index="0" speed="13.89" length="2.41" shape="1243.87,152.50 1244.74,152.81 1245.70,153.95"/>
    </edge>
    <edge id=":1209330860_2" function="internal">
        <lane id=":1209330860_2_0" index="0" disallow="tram rail_urban rail rail_electric ship" speed="13.89" length="0.10" shape="1245.70,154.03 1245.70,153.95"/>
    </edge>
    <edge id=":1209330860_3" function="internal">
        <lane id=":1209330860_3_0" index="0" disallow="tram rail_urban rail rail_electric ship" speed="13.89" length="2.41" shape="1245.70,154.03 1244.96,155.32 1244.16,155.78"/>
    </edge>
    <edge id=":1209330860_5" function="internal">
        <lane id=":1209330860_5_0" index="0" speed="13.89" length="2.41" shape="1244.16,155.78 1243.31,155.42 1242.41,154.24"/>
    </edge>
    <edge id=":1209330887_0" function="internal">
        <lane id=":1209330887_0_0" index="0" disallow="tram rail_urban rail rail_electric ship" speed="13.89" length="5.00" shape="489.65,102.19 484.83,100.85"/>
    </edge>
    <edge id=":1209330887_1" function="internal">
        <lane id=":1209330887_1_0" index="0" disallow="tram rail_urban rail rail_electric ship" speed="13.89" length="5.29" shape="489.40,98.19 484.83,100.85"/>
    </edge>
    <edge id=":1209331443_0" function="internal">
        <lane id=":1209331443_0_0" index="0" disallow="tram rail_urban rail rail_electric ship" speed="13.89" length="0.10" shape="1381.01,142.11 1381.01,142.11"/>
    </edge>
    <edge id=":1209331642_0" function="internal">
        <lane id=":1209331642_0_0" index="0" disallow="tram rail_urban rail rail_electric ship" speed="13.89" length="0.72" shape="930.27,193.37 929.07,193.18"/>
        <lane id=":1209331642_0_1" index="1" disallow="tram rail_urban rail rail_electric ship" speed="13.89" length="0.72" shape="930.56,190.09 929.85,189.97"/>
        <lane id=":1209331642_0_2" index="2" disallow="tram rail_urban rail rail_electric ship" speed="13.89" length="0.72" shape="930.86,186.80 930.63,186.76"/>
    </edge>
    <edge id=":1209331790_0" function="internal">
        <lane id=":1209331790_0_0" index="0" disallow="tram rail_urban rail rail_electric ship" speed="13.89" length="0.10" shape="1663.04,130.09 1663.02,130.09"/>
        <lane id=":1209331790_0_1" index="1" disallow="tram rail_urban rail rail_electric ship" speed="13.89" length="0.10" shape="1663.31,133.38 1663.33,133.38"/>
    </edge>
    <edge id=":1209332028_0" function="internal">
        <lane id=":1209332028_0_0" index="0" disallow="tram rail_urban rail rail_electric ship" speed="13.89" length="4.11" shape="292.93,42.80 289.34,44.81"/>
    </edge>
    <edge id=":1209332028_1" function="internal">
        <lane id=":1209332028_1_0" index="0" disallow="tram rail_urban rail rail_electric ship" speed="13.89" length="3.27" shape="292.26,43.89 290.20,41.62"/>
        <lane id=":1209332028_1_1" index="1" disallow="tram rail_urban rail rail_electric ship" speed="13.89" length="3.27" shape="293.44,40.80 292.62,40.30 292.26,39.62 291.89,38.93 291.07,38.44"/>
    </edge>
    <edge id=":1209332387_0" function="internal">
        <lane id=":1209332387_0_0" index="0" disallow="tram rail_urban rail rail_electric ship" speed="13.89" length="6.84" shape="402.70,81.73 401.63,79.71 400.56,78.18 399.49,77.15 398.42,76.60"/>
    </edge>
    <edge id=":1209332387_1" function="internal">
        <lane id=":1209332387_1_0" index="0" disallow="tram rail_urban rail rail_electric ship" speed="13.89" length="7.23" shape="405.38,78.56 398.42,76.60"/>
    </edge>
    <edge id=":1223809784_0" function="internal">
        <lane id=":1223809784_0_0" index="0" disallow="tram rail_urban rail rail_electric ship" speed="13.89" length="0.10" shape="180.27,1185.31 180.27,1185.31"/>
    </edge>
    <edge id=":1223809785_0" function="internal">
        <lane id=":1223809785_0_0" index="0" disallow="tram rail_urban rail rail_electric ship" speed="13.89" length="0.10" shape="122.03,1665.73 122.03,1665.73"/>
    </edge>
    <edge id=":1223809787_0" function="internal">
        <lane id=":1223809787_0_0" index="0" disallow="tram rail_urban rail rail_electric ship" speed="13.89" length="0.10" shape="207.17,1699.75 207.17,1699.75"/>
    </edge>
    <edge id=":1223809793_0" function="internal">
        <lane id=":1223809793_0_0" index="0" disallow="tram rail_urban rail rail_electric ship" speed="13.89" length="0.94" shape="210.93,1457.45 210.96,1457.92 210.97,1458.24 210.94,1458.56 210.89,1459.02"/>
        <lane id=":1223809793_0_1" index="1" disallow="tram rail_urban rail rail_electric ship" speed="13.89" length="0.94" shape="207.64,1457.67 207.66,1457.94 207.66,1458.14 207.65,1458.33 207.61,1458.60"/>
        <lane id=":1223809793_0_2" index="2" disallow="tram rail_urban rail rail_electric ship" speed="13.89" length="0.94" shape="204.35,1457.88 204.35,1457.97 204.36,1458.04 204.35,1458.10 204.34,1458.19"/>
    </edge>
    <edge id=":1223809796_0" function="internal">
        <lane id=":1223809796_0_0" index="0" disallow="tram rail_urban rail rail_electric ship" speed="13.89" length="0.10" shape="162.60,1507.25 162.60,1507.25"/>
    </edge>
    <edge id=":1223809798_0" function="internal">
        <lane id=":1223809798_0_0" index="0" disallow="tram rail_urban rail rail_electric ship" speed="13.89" length="0.78" shape="101.05,1696.69 100.14,1696.67"/>
        <lane id=":1223809798_0_1" index="1" disallow="tram rail_urban rail rail_electric ship" speed="13.89" length="0.78" shape="100.99,1693.39 100.34,1693.37"/>
    </edge>
    <edge id=":1223809798_2" function="internal">
        <lane id=":1223809798_2_0" index="0" disallow="tram rail_urban rail rail_electric ship" speed="13.89" length="2.41" shape="100.99,1693.39 99.74,1692.58 99.31,1691.76"/>
    </edge>
    <edge id=":1223809798_6" function="internal">
        <lane id=":1223809798_6_0" index="0" speed="13.89" length="2.41" shape="99.31,1691.76 99.71,1690.93 100.93,1690.09"/>
    </edge>
    <edge id=":1223809798_3" function="internal">
        <lane id=":1223809798_3_0" index="0" disallow="tram rail_urban rail rail_electric ship" speed="13.89" length="0.26" shape="100.75,1686.78 100.87,1686.79"/>
        <lane id=":1223809798_3_1" index="1" disallow="tram rail_urban rail rail_electric ship" speed="13.89" length="0.26" shape="100.54,1690.08 100.93,1690.09"/>
    </edge>
    <edge id=":1223809798_5" function="internal">
        <lane id=":1223809798_5_0" index="0" disallow="tram rail_urban rail rail_electric ship" speed="13.89" length="2.41" shape="100.54,1690.08 101.73,1690.98 102.09,1691.83"/>
    </edge>
    <edge id=":1223809798_7" function="internal">
        <lane id=":1223809798_7_0" index="0" speed="13.89" length="2.41" shape="102.09,1691.83 101.63,1692.62 100.34,1693.37"/>
    </edge>
    <edge id=":1223809804_0" function="internal">
        <lane id=":1223809804_0_0" index="0" disallow="tram rail_urban rail rail_electric ship" speed="18.05" length="7.66" shape="200.84,1537.99 200.81,1540.16 201.34,1541.59 202.35,1542.92 203.74,1544.74"/>
    </edge>
    <edge id=":1223809804_1" function="internal">
        <lane id=":1223809804_1_0" index="0" disallow="tram rail_urban rail rail_electric ship" speed="13.89" length="7.73" shape="200.84,1537.99 199.79,1545.68"/>
        <lane id=":1223809804_1_1" index="1" disallow="tram rail_urban rail rail_electric ship" speed="13.89" length="7.73" shape="197.56,1537.57 196.52,1545.23"/>
        <lane id=":1223809804_1_2" index="2" disallow="tram rail_urban rail rail_electric ship" speed="13.89" length="7.73" shape="194.29,1537.16 193.25,1544.79"/>
    </edge>
    <edge id=":1223809808_0" function="internal">
        <lane id=":1223809808_0_0" index="0" disallow="tram rail_urban rail rail_electric ship" speed="13.89" length="0.10" shape="137.21,1684.55 137.21,1684.55"/>
    </edge>
    <edge id=":1223809816_0" function="internal">
        <lane id=":1223809816_0_0" index="0" disallow="tram rail_urban rail rail_electric ship" speed="13.89" length="1.33" shape="194.16,1456.58 194.18,1456.45 194.18,1456.36 194.18,1456.27 194.16,1456.15"/>
        <lane id=":1223809816_0_1" index="1" disallow="tram rail_urban rail rail_electric ship" speed="13.89" length="1.33" shape="197.43,1457.01 197.48,1456.62 197.50,1456.35 197.48,1456.08 197.43,1455.69"/>