<?xml version="1.0" encoding="UTF-8"?>

<!-- generated on Fri Oct 21 15:54:31 2016 by SUMO netgenerate Version 0.27.1
<?xml version="1.0" encoding="UTF-8"?>

<configuration xmlns:xsi="http://www.w3.org/2001/XMLSchema-instance" xsi:noNamespaceSchemaLocation="http://sumo.dlr.de/xsd/netgenerateConfiguration.xsd">

    <spider_network>
        <spider value="true"/>
        <spider.arm-number value="16"/>
        <spider.circle-number value="16"/>
        <spider.space-radius value="100"/>
        <spider.omit-center value="true"/>
    </spider_network>

    <output>
        <output-file value="canogrid_Bastra_logit100_adhocmaps_randomtraffic.net.xml"/>
        <plain-output-prefix value="canogrid_Bastra_logit100_adhocmaps_randomtraffic"/>
    </output>

    <building_defaults>
        <default.lanenumber value="1"/>
        <default.priority value="-1"/>
    </building_defaults>

    <report>
        <verbose value="true"/>
    </report>

</configuration>
-->

<net version="0.27" xmlns:xsi="http://www.w3.org/2001/XMLSchema-instance" xsi:noNamespaceSchemaLocation="http://sumo.dlr.de/xsd/net_file.xsd">

    <location netOffset="1600.00,1600.00" convBoundary="0.00,0.00,3200.00,3200.00" origBoundary="-1600.00,-1600.00,1600.00,1600.00" projParameter="!"/>

    <edge id=":1/1_0" function="internal">
        <lane id=":1/1_0_0" index="0" speed="13.90" length="50" shape="1704.17,1601.65 1702.90,1601.82 1701.92,1602.34 1701.22,1603.20 1700.81,1604.41"/>
    </edge>
    <edge id=":1/1_1" function="internal">
        <lane id=":1/1_1_0" index="0" speed="13.90" length="50" shape="1704.17,1601.65 1701.68,1601.31 1699.76,1600.30 1698.39,1598.60 1697.57,1596.23"/>
    </edge>
    <edge id=":1/1_2" function="internal">
        <lane id=":1/1_2_0" index="0" speed="13.90" length="50" shape="1704.17,1601.65 1702.93,1600.82 1702.52,1600.00 1702.93,1599.17 1704.17,1598.35"/>
    </edge>
    <edge id=":1/1_3" function="internal">
        <lane id=":1/1_3_0" index="0" speed="13.90" length="50" shape="1700.81,1595.59 1701.22,1596.80 1701.92,1597.66 1702.90,1598.18 1704.17,1598.35"/>
    </edge>
    <edge id=":1/1_4" function="internal">
        <lane id=":1/1_4_0" index="0" speed="13.90" length="50" shape="1700.81,1595.59 1701.29,1598.19 1701.45,1600.00 1701.29,1601.81 1700.81,1604.41"/>
    </edge>
    <edge id=":1/1_5" function="internal">
        <lane id=":1/1_5_0" index="0" speed="13.90" length="50" shape="1700.81,1595.59 1700.24,1596.97 1699.51,1597.53"/>
    </edge>
    <edge id=":1/1_9" function="internal">
        <lane id=":1/1_9_0" index="0" speed="13.90" length="50" shape="1699.51,1597.53 1698.62,1597.29 1697.57,1596.23"/>
    </edge>
    <edge id=":1/1_6" function="internal">
        <lane id=":1/1_6_0" index="0" speed="13.90" length="50" shape="1697.57,1603.77 1697.98,1601.55 1698.12,1600.00 1697.98,1598.45 1697.57,1596.23"/>
    </edge>
    <edge id=":1/1_7" function="internal">
        <lane id=":1/1_7_0" index="0" speed="13.90" length="50" shape="1697.57,1603.77 1698.39,1601.40 1699.76,1599.70"/>
    </edge>
    <edge id=":1/1_8" function="internal">
        <lane id=":1/1_8_0" index="0" speed="13.90" length="50" shape="1697.57,1603.77 1698.62,1602.71 1699.51,1602.47"/>
    </edge>
    <edge id=":1/1_10" function="internal">
        <lane id=":1/1_10_0" index="0" speed="13.90" length="50" shape="1699.76,1599.70 1701.68,1598.69 1704.17,1598.35"/>
    </edge>
    <edge id=":1/1_11" function="internal">
        <lane id=":1/1_11_0" index="0" speed="13.90" length="50" shape="1699.51,1602.47 1700.24,1603.03 1700.81,1604.41"/>
    </edge>
    <edge id=":1/10_0" function="internal">
        <lane id=":1/10_0_0" index="0" speed="13.90" length="50" shape="2604.17,1601.65 2602.89,1601.90 2601.86,1602.66 2601.08,1603.92 2600.55,1605.68"/>
    </edge>
    <edge id=":1/10_1" function="internal">
        <lane id=":1/10_1_0" index="0" speed="13.90" length="50" shape="2604.17,1601.65 2594.54,1601.65"/>
    </edge>
    <edge id=":1/10_2" function="internal">
        <lane id=":1/10_2_0" index="0" speed="13.90" length="50" shape="2604.17,1601.65 2601.67,1601.23 2599.69,1599.98"/>
    </edge>
    <edge id=":1/10_3" function="internal">
        <lane id=":1/10_3_0" index="0" speed="13.90" length="50" shape="2604.17,1601.65 2602.93,1600.82 2602.52,1600.00"/>
    </edge>
    <edge id=":1/10_16" function="internal">
        <lane id=":1/10_16_0" index="0" speed="13.90" length="50" shape="2599.69,1599.98 2598.24,1597.89 2597.32,1594.97"/>
    </edge>
    <edge id=":1/10_17" function="internal">
        <lane id=":1/10_17_0" index="0" speed="13.90" length="50" shape="2602.52,1600.00 2602.93,1599.17 2604.17,1598.35"/>
    </edge>
    <edge id=":1/10_4" function="internal">
        <lane id=":1/10_4_0" index="0" speed="13.90" length="50" shape="2600.55,1594.32 2601.08,1596.08 2601.86,1597.34 2602.89,1598.10 2604.17,1598.35"/>
    </edge>
    <edge id=":1/10_5" function="internal">
        <lane id=":1/10_5_0" index="0" speed="13.90" length="50" shape="2600.55,1594.32 2601.10,1597.48 2601.28,1600.00 2601.10,1602.52 2600.55,1605.68"/>
    </edge>
    <edge id=":1/10_6" function="internal">
        <lane id=":1/10_6_0" index="0" speed="13.90" length="50" shape="2600.55,1594.32 2600.72,1597.53 2599.78,1599.82 2597.72,1601.19 2594.54,1601.65"/>
    </edge>
    <edge id=":1/10_7" function="internal">
        <lane id=":1/10_7_0" index="0" speed="13.90" length="50" shape="2600.55,1594.32 2599.99,1595.70 2599.26,1596.26 2598.37,1596.02 2597.32,1594.97"/>
    </edge>
    <edge id=":1/10_8" function="internal">
        <lane id=":1/10_8_0" index="0" speed="13.90" length="50" shape="2594.54,1598.35 2596.01,1598.14 2596.96,1597.50 2597.40,1596.45 2597.32,1594.97"/>
    </edge>
    <edge id=":1/10_9" function="internal">
        <lane id=":1/10_9_0" index="0" speed="13.90" length="50" shape="2594.54,1598.35 2604.17,1598.35"/>
    </edge>
    <edge id=":1/10_10" function="internal">
        <lane id=":1/10_10_0" index="0" speed="13.90" length="50" shape="2594.54,1598.35 2597.72,1598.81 2599.58,1600.05"/>
    </edge>
    <edge id=":1/10_11" function="internal">
        <lane id=":1/10_11_0" index="0" speed="13.90" length="50" shape="2594.54,1598.35 2595.78,1599.18 2596.19,1600.00"/>
    </edge>
    <edge id=":1/10_18" function="internal">
        <lane id=":1/10_18_0" index="0" speed="13.90" length="50" shape="2599.58,1600.05 2599.78,1600.18 2600.72,1602.47 2600.55,1605.68"/>
    </edge>
    <edge id=":1/10_19" function="internal">
        <lane id=":1/10_19_0" index="0" speed="13.90" length="50" shape="2596.19,1600.00 2595.78,1600.83 2594.54,1601.65"/>
    </edge>
    <edge id=":1/10_12" function="internal">
        <lane id=":1/10_12_0" index="0" speed="13.90" length="50" shape="2597.32,1605.03 2597.40,1603.55 2596.96,1602.50 2596.01,1601.86 2594.54,1601.65"/>
    </edge>
    <edge id=":1/10_13" function="internal">
        <lane id=":1/10_13_0" index="0" speed="13.90" length="50" shape="2597.32,1605.03 2597.87,1602.08 2598.05,1600.00 2597.87,1597.92 2597.32,1594.97"/>
    </edge>
    <edge id=":1/10_14" function="internal">
        <lane id=":1/10_14_0" index="0" speed="13.90" length="50" shape="2597.32,1605.03 2598.24,1602.11 2599.69,1600.02 2601.67,1598.77 2604.17,1598.35"/>
    </edge>
    <edge id=":1/10_15" function="internal">
        <lane id=":1/10_15_0" index="0" speed="13.90" length="50" shape="2597.32,1605.03 2598.37,1603.98 2599.26,1603.74 2599.99,1604.30 2600.55,1605.68"/>
    </edge>
    <edge id=":1/11_0" function="internal">
        <lane id=":1/11_0_0" index="0" speed="13.90" length="50" shape="2704.17,1601.65 2702.89,1601.90 2701.86,1602.66 2701.08,1603.92 2700.55,1605.68"/>
    </edge>
    <edge id=":1/11_1" function="internal">
        <lane id=":1/11_1_0" index="0" speed="13.90" length="50" shape="2704.17,1601.65 2694.54,1601.65"/>
    </edge>
    <edge id=":1/11_2" function="internal">
        <lane id=":1/11_2_0" index="0" speed="13.90" length="50" shape="2704.17,1601.65 2701.67,1601.23 2699.69,1599.98"/>
    </edge>
    <edge id=":1/11_3" function="internal">
        <lane id=":1/11_3_0" index="0" speed="13.90" length="50" shape="2704.17,1601.65 2702.93,1600.82 2702.52,1600.00"/>
    </edge>
    <edge id=":1/11_16" function="internal">
        <lane id=":1/11_16_0" index="0" speed="13.90" length="50" shape="2699.69,1599.98 2698.24,1597.89 2697.32,1594.97"/>
    </edge>
    <edge id=":1/11_17" function="internal">
        <lane id=":1/11_17_0" index="0" speed="13.90" length="50" shape="2702.52,1600.00 2702.93,1599.17 2704.17,1598.35"/>
    </edge>
    <edge id=":1/11_4" function="internal">
        <lane id=":1/11_4_0" index="0" speed="13.90" length="50" shape="2700.55,1594.32 2701.08,1596.08 2701.86,1597.34 2702.89,1598.10 2704.17,1598.35"/>
    </edge>
    <edge id=":1/11_5" function="internal">
        <lane id=":1/11_5_0" index="0" speed="13.90" length="50" shape="2700.55,1594.32 2701.10,1597.48 2701.28,1600.00 2701.10,1602.52 2700.55,1605.68"/>
    </edge>
    <edge id=":1/11_6" function="internal">
        <lane id=":1/11_6_0" index="0" speed="13.90" length="50" shape="2700.55,1594.32 2700.72,1597.53 2699.78,1599.82 2697.72,1601.19 2694.54,1601.65"/>
    </edge>
    <edge id=":1/11_7" function="internal">
        <lane id=":1/11_7_0" index="0" speed="13.90" length="50" shape="2700.55,1594.32 2699.99,1595.70 2699.26,1596.26 2698.37,1596.02 2697.32,1594.97"/>
    </edge>
    <edge id=":1/11_8" function="internal">
        <lane id=":1/11_8_0" index="0" speed="13.90" length="50" shape="2694.54,1598.35 2696.01,1598.14 2696.96,1597.50 2697.40,1596.45 2697.32,1594.97"/>
    </edge>
    <edge id=":1/11_9" function="internal">
        <lane id=":1/11_9_0" index="0" speed="13.90" length="50" shape="2694.54,1598.35 2704.17,1598.35"/>
    </edge>
    <edge id=":1/11_10" function="internal">
        <lane id=":1/11_10_0" index="0" speed="13.90" length="50" shape="2694.54,1598.35 2697.72,1598.81 2699.58,1600.05"/>
    </edge>
    <edge id=":1/11_11" function="internal">
        <lane id=":1/11_11_0" index="0" speed="13.90" length="50" shape="2694.54,1598.35 2695.78,1599.18 2696.19,1600.00"/>
    </edge>
    <edge id=":1/11_18" function="internal">
        <lane id=":1/11_18_0" index="0" speed="13.90" length="50" shape="2699.58,1600.05 2699.78,1600.18 2700.72,1602.47 2700.55,1605.68"/>
    </edge>
    <edge id=":1/11_19" function="internal">
        <lane id=":1/11_19_0" index="0" speed="13.90" length="50" shape="2696.19,1600.00 2695.78,1600.83 2694.54,1601.65"/>
    </edge>
    <edge id=":1/11_12" function="internal">
        <lane id=":1/11_12_0" index="0" speed="13.90" length="50" shape="2697.32,1605.03 2697.40,1603.55 2696.96,1602.50 2696.01,1601.86 2694.54,1601.65"/>
    </edge>
    <edge id=":1/11_13" function="internal">
        <lane id=":1/11_13_0" index="0" speed="13.90" length="50" shape="2697.32,1605.03 2697.87,1602.08 2698.05,1600.00 2697.87,1597.92 2697.32,1594.97"/>
    </edge>
    <edge id=":1/11_14" function="internal">
        <lane id=":1/11_14_0" index="0" speed="13.90" length="50" shape="2697.32,1605.03 2698.24,1602.11 2699.69,1600.02 2701.67,1598.77 2704.17,1598.35"/>
    </edge>
    <edge id=":1/11_15" function="internal">
        <lane id=":1/11_15_0" index="0" speed="13.90" length="50" shape="2697.32,1605.03 2698.37,1603.98 2699.26,1603.74 2699.99,1604.30 2700.55,1605.68"/>
    </edge>
    <edge id=":1/12_0" function="internal">
        <lane id=":1/12_0_0" index="0" speed="13.90" length="50" shape="2804.17,1601.65 2802.89,1601.90 2801.86,1602.66 2801.08,1603.92 2800.55,1605.68"/>
    </edge>
    <edge id=":1/12_1" function="internal">
        <lane id=":1/12_1_0" index="0" speed="13.90" length="50" shape="2804.17,1601.65 2794.54,1601.65"/>
    </edge>
    <edge id=":1/12_2" function="internal">
        <lane id=":1/12_2_0" index="0" speed="13.90" length="50" shape="2804.17,1601.65 2801.67,1601.23 2799.69,1599.98"/>
    </edge>
    <edge id=":1/12_3" function="internal">
        <lane id=":1/12_3_0" index="0" speed="13.90" length="50" shape="2804.17,1601.65 2802.93,1600.82 2802.52,1600.00"/>
    </edge>
    <edge id=":1/12_16" function="internal">
        <lane id=":1/12_16_0" index="0" speed="13.90" length="50" shape="2799.69,1599.98 2798.24,1597.89 2797.32,1594.97"/>
    </edge>
    <edge id=":1/12_17" function="internal">
        <lane id=":1/12_17_0" index="0" speed="13.90" length="50" shape="2802.52,1600.00 2802.93,1599.17 2804.17,1598.35"/>
    </edge>
    <edge id=":1/12_4" function="internal">
        <lane id=":1/12_4_0" index="0" speed="13.90" length="50" shape="2800.55,1594.32 2801.08,1596.08 2801.86,1597.34 2802.89,1598.10 2804.17,1598.35"/>
    </edge>
    <edge id=":1/12_5" function="internal">
        <lane id=":1/12_5_0" index="0" speed="13.90" length="50" shape="2800.55,1594.32 2801.10,1597.48 2801.28,1600.00 2801.10,1602.52 2800.55,1605.68"/>
    </edge>
    <edge id=":1/12_6" function="internal">
        <lane id=":1/12_6_0" index="0" speed="13.90" length="50" shape="2800.55,1594.32 2800.72,1597.53 2799.78,1599.82 2797.72,1601.19 2794.54,1601.65"/>
    </edge>
    <edge id=":1/12_7" function="internal">
        <lane id=":1/12_7_0" index="0" speed="13.90" length="50" shape="2800.55,1594.32 2799.99,1595.70 2799.26,1596.26 2798.37,1596.02 2797.32,1594.97"/>
    </edge>
    <edge id=":1/12_8" function="internal">
        <lane id=":1/12_8_0" index="0" speed="13.90" length="50" shape="2794.54,1598.35 2796.01,1598.14 2796.96,1597.50 2797.40,1596.45 2797.32,1594.97"/>
    </edge>
    <edge id=":1/12_9" function="internal">
        <lane id=":1/12_9_0" index="0" speed="13.90" length="50" shape="2794.54,1598.35 2804.17,1598.35"/>
    </edge>
    <edge id=":1/12_10" function="internal">
        <lane id=":1/12_10_0" index="0" speed="13.90" length="50" shape="2794.54,1598.35 2797.72,1598.81 2799.58,1600.05"/>
    </edge>
    <edge id=":1/12_11" function="internal">
        <lane id=":1/12_11_0" index="0" speed="13.90" length="50" shape="2794.54,1598.35 2795.78,1599.18 2796.19,1600.00"/>
    </edge>
    <edge id=":1/12_18" function="internal">
        <lane id=":1/12_18_0" index="0" speed="13.90" length="50" shape="2799.58,1600.05 2799.78,1600.18 2800.72,1602.47 2800.55,1605.68"/>
    </edge>
    <edge id=":1/12_19" function="internal">
        <lane id=":1/12_19_0" index="0" speed="13.90" length="50" shape="2796.19,1600.00 2795.78,1600.83 2794.54,1601.65"/>
    </edge>
    <edge id=":1/12_12" function="internal">
        <lane id=":1/12_12_0" index="0" speed="13.90" length="50" shape="2797.32,1605.03 2797.40,1603.55 2796.96,1602.50 2796.01,1601.86 2794.54,1601.65"/>
    </edge>
    <edge id=":1/12_13" function="internal">
        <lane id=":1/12_13_0" index="0" speed="13.90" length="50" shape="2797.32,1605.03 2797.87,1602.08 2798.05,1600.00 2797.87,1597.92 2797.32,1594.97"/>
    </edge>
    <edge id=":1/12_14" function="internal">
        <lane id=":1/12_14_0" index="0" speed="13.90" length="50" shape="2797.32,1605.03 2798.24,1602.11 2799.69,1600.02 2801.67,1598.77 2804.17,1598.35"/>
    </edge>
    <edge id=":1/12_15" function="internal">
        <lane id=":1/12_15_0" index="0" speed="13.90" length="50" shape="2797.32,1605.03 2798.37,1603.98 2799.26,1603.74 2799.99,1604.30 2800.55,1605.68"/>
    </edge>
    <edge id=":1/13_0" function="internal">
        <lane id=":1/13_0_0" index="0" speed="13.90" length="50" shape="2904.17,1601.65 2902.89,1601.90 2901.86,1602.66 2901.08,1603.92 2900.55,1605.68"/>
    </edge>
    <edge id=":1/13_1" function="internal">
        <lane id=":1/13_1_0" index="0" speed="13.90" length="50" shape="2904.17,1601.65 2894.54,1601.65"/>
    </edge>
    <edge id=":1/13_2" function="internal">
        <lane id=":1/13_2_0" index="0" speed="13.90" length="50" shape="2904.17,1601.65 2901.67,1601.23 2899.69,1599.98"/>
    </edge>
    <edge id=":1/13_3" function="internal">
        <lane id=":1/13_3_0" index="0" speed="13.90" length="50" shape="2904.17,1601.65 2902.93,1600.82 2902.52,1600.00"/>
    </edge>
    <edge id=":1/13_16" function="internal">
        <lane id=":1/13_16_0" index="0" speed="13.90" length="50" shape="2899.69,1599.98 2898.24,1597.89 2897.32,1594.97"/>
    </edge>
    <edge id=":1/13_17" function="internal">
        <lane id=":1/13_17_0" index="0" speed="13.90" length="50" shape="2902.52,1600.00 2902.93,1599.17 2904.17,1598.35"/>
    </edge>
    <edge id=":1/13_4" function="internal">
        <lane id=":1/13_4_0" index="0" speed="13.90" length="50" shape="2900.55,1594.32 2901.08,1596.08 2901.86,1597.34 2902.89,1598.10 2904.17,1598.35"/>
    </edge>
    <edge id=":1/13_5" function="internal">
        <lane id=":1/13_5_0" index="0" speed="13.90" length="50" shape="2900.55,1594.32 2901.10,1597.48 2901.28,1600.00 2901.10,1602.52 2900.55,1605.68"/>
    </edge>
    <edge id=":1/13_6" function="internal">
        <lane id=":1/13_6_0" index="0" speed="13.90" length="50" shape="2900.55,1594.32 2900.72,1597.53 2899.78,1599.82 2897.72,1601.19 2894.54,1601.65"/>
    </edge>
    <edge id=":1/13_7" function="internal">
        <lane id=":1/13_7_0" index="0" speed="13.90" length="50" shape="2900.55,1594.32 2899.99,1595.70 2899.26,1596.26 2898.37,1596.02 2897.32,1594.97"/>
    </edge>
    <edge id=":1/13_8" function="internal">
        <lane id=":1/13_8_0" index="0" speed="13.90" length="50" shape="2894.54,1598.35 2896.01,1598.14 2896.96,1597.50 2897.40,1596.45 2897.32,1594.97"/>
    </edge>
    <edge id=":1/13_9" function="internal">
        <lane id=":1/13_9_0" index="0" speed="13.90" length="50" shape="2894.54,1598.35 2904.17,1598.35"/>
    </edge>
    <edge id=":1/13_10" function="internal">
        <lane id=":1/13_10_0" index="0" speed="13.90" length="50" shape="2894.54,1598.35 2897.72,1598.81 2899.58,1600.05"/>
    </edge>
    <edge id=":1/13_11" function="internal">
        <lane id=":1/13_11_0" index="0" speed="13.90" length="50" shape="2894.54,1598.35 2895.78,1599.18 2896.19,1600.00"/>
    </edge>
    <edge id=":1/13_18" function="internal">
        <lane id=":1/13_18_0" index="0" speed="13.90" length="50" shape="2899.58,1600.05 2899.78,1600.18 2900.72,1602.47 2900.55,1605.68"/>
    </edge>
    <edge id=":1/13_19" function="internal">
        <lane id=":1/13_19_0" index="0" speed="13.90" length="50" shape="2896.19,1600.00 2895.78,1600.83 2894.54,1601.65"/>
    </edge>
    <edge id=":1/13_12" function="internal">
        <lane id=":1/13_12_0" index="0" speed="13.90" length="50" shape="2897.32,1605.03 2897.40,1603.55 2896.96,1602.50 2896.01,1601.86 2894.54,1601.65"/>
    </edge>
    <edge id=":1/13_13" function="internal">
        <lane id=":1/13_13_0" index="0" speed="13.90" length="50" shape="2897.32,1605.03 2897.87,1602.08 2898.05,1600.00 2897.87,1597.92 2897.32,1594.97"/>
    </edge>
    <edge id=":1/13_14" function="internal">
        <lane id=":1/13_14_0" index="0" speed="13.90" length="50" shape="2897.32,1605.03 2898.24,1602.11 2899.69,1600.02 2901.67,1598.77 2904.17,1598.35"/>
    </edge>
    <edge id=":1/13_15" function="internal">
        <lane id=":1/13_15_0" index="0" speed="13.90" length="50" shape="2897.32,1605.03 2898.37,1603.98 2899.26,1603.74 2899.99,1604.30 2900.55,1605.68"/>
    </edge>
    <edge id=":1/14_0" function="internal">
        <lane id=":1/14_0_0" index="0" speed="13.90" length="50" shape="3004.17,1601.65 3002.89,1601.90 3001.86,1602.66 3001.08,1603.92 3000.55,1605.68"/>
    </edge>
    <edge id=":1/14_1" function="internal">
        <lane id=":1/14_1_0" index="0" speed="13.90" length="50" shape="3004.17,1601.65 2994.54,1601.65"/>
    </edge>
    <edge id=":1/14_2" function="internal">
        <lane id=":1/14_2_0" index="0" speed="13.90" length="50" shape="3004.17,1601.65 3001.67,1601.23 2999.69,1599.98"/>
    </edge>
    <edge id=":1/14_3" function="internal">
        <lane id=":1/14_3_0" index="0" speed="13.90" length="50" shape="3004.17,1601.65 3002.93,1600.82 3002.52,1600.00"/>
    </edge>
    <edge id=":1/14_16" function="internal">
        <lane id=":1/14_16_0" index="0" speed="13.90" length="50" shape="2999.69,1599.98 2998.24,1597.89 2997.32,1594.97"/>
    </edge>
    <edge id=":1/14_17" function="internal">
        <lane id=":1/14_17_0" index="0" speed="13.90" length="50" shape="3002.52,1600.00 3002.93,1599.17 3004.17,1598.35"/>
    </edge>
    <edge id=":1/14_4" function="internal">
        <lane id=":1/14_4_0" index="0" speed="13.90" length="50" shape="3000.55,1594.32 3001.08,1596.08 3001.86,1597.34 3002.89,1598.10 3004.17,1598.35"/>
    </edge>
    <edge id=":1/14_5" function="internal">
        <lane id=":1/14_5_0" index="0" speed="13.90" length="50" shape="3000.55,1594.32 3001.10,1597.48 3001.28,1600.00 3001.10,1602.52 3000.55,1605.68"/>
    </edge>
    <edge id=":1/14_6" function="internal">
        <lane id=":1/14_6_0" index="0" speed="13.90" length="50" shape="3000.55,1594.32 3000.72,1597.53 2999.78,1599.82 2997.72,1601.19 2994.54,1601.65"/>
    </edge>
    <edge id=":1/14_7" function="internal">
        <lane id=":1/14_7_0" index="0" speed="13.90" length="50" shape="3000.55,1594.32 2999.99,1595.70 2999.26,1596.26 2998.37,1596.02 2997.32,1594.97"/>
    </edge>
    <edge id=":1/14_8" function="internal">
        <lane id=":1/14_8_0" index="0" speed="13.90" length="50" shape="2994.54,1598.35 2996.01,1598.14 2996.96,1597.50 2997.40,1596.45 2997.32,1594.97"/>
    </edge>
    <edge id=":1/14_9" function="internal">
        <lane id=":1/14_9_0" index="0" speed="13.90" length="50" shape="2994.54,1598.35 3004.17,1598.35"/>
    </edge>
    <edge id=":1/14_10" function="internal">
        <lane id=":1/14_10_0" index="0" speed="13.90" length="50" shape="2994.54,1598.35 2997.72,1598.81 2999.58,1600.05"/>
    </edge>
    <edge id=":1/14_11" function="internal">
        <lane id=":1/14_11_0" index="0" speed="13.90" length="50" shape="2994.54,1598.35 2995.78,1599.18 2996.19,1600.00"/>
    </edge>
    <edge id=":1/14_18" function="internal">
        <lane id=":1/14_18_0" index="0" speed="13.90" length="50" shape="2999.58,1600.05 2999.78,1600.18 3000.72,1602.47 3000.55,1605.68"/>
    </edge>
    <edge id=":1/14_19" function="internal">
        <lane id=":1/14_19_0" index="0" speed="13.90" length="50" shape="2996.19,1600.00 2995.78,1600.83 2994.54,1601.65"/>
    </edge>
    <edge id=":1/14_12" function="internal">
        <lane id=":1/14_12_0" index="0" speed="13.90" length="50" shape="2997.32,1605.03 2997.40,1603.55 2996.96,1602.50 2996.01,1601.86 2994.54,1601.65"/>
    </edge>
    <edge id=":1/14_13" function="internal">
        <lane id=":1/14_13_0" index="0" speed="13.90" length="50" shape="2997.32,1605.03 2997.87,1602.08 2998.05,1600.00 2997.87,1597.92 2997.32,1594.97"/>
    </edge>
    <edge id=":1/14_14" function="internal">
        <lane id=":1/14_14_0" index="0" speed="13.90" length="50" shape="2997.32,1605.03 2998.24,1602.11 2999.69,1600.02 3001.67,1598.77 3004.17,1598.35"/>
    </edge>
    <edge id=":1/14_15" function="internal">
        <lane id=":1/14_15_0" index="0" speed="13.90" length="50" shape="2997.32,1605.03 2998.37,1603.98 2999.26,1603.74 2999.99,1604.30 3000.55,1605.68"/>
    </edge>
    <edge id=":1/15_0" function="internal">
        <lane id=":1/15_0_0" index="0" speed="13.90" length="50" shape="3104.17,1601.65 3102.89,1601.90 3101.86,1602.66 3101.08,1603.92 3100.55,1605.68"/>
    </edge>
    <edge id=":1/15_1" function="internal">
        <lane id=":1/15_1_0" index="0" speed="13.90" length="50" shape="3104.17,1601.65 3094.54,1601.65"/>
    </edge>
    <edge id=":1/15_2" function="internal">
        <lane id=":1/15_2_0" index="0" speed="13.90" length="50" shape="3104.17,1601.65 3101.67,1601.23 3099.69,1599.98"/>
    </edge>
    <edge id=":1/15_3" function="internal">
        <lane id=":1/15_3_0" index="0" speed="13.90" length="50" shape="3104.17,1601.65 3102.93,1600.82 3102.52,1600.00"/>
    </edge>
    <edge id=":1/15_16" function="internal">
        <lane id=":1/15_16_0" index="0" speed="13.90" length="50" shape="3099.69,1599.98 3098.24,1597.89 3097.32,1594.97"/>
    </edge>
    <edge id=":1/15_17" function="internal">
        <lane id=":1/15_17_0" index="0" speed="13.90" length="50" shape="3102.52,1600.00 3102.93,1599.17 3104.17,1598.35"/>
    </edge>
    <edge id=":1/15_4" function="internal">
        <lane id=":1/15_4_0" index="0" speed="13.90" length="50" shape="3100.55,1594.32 3101.08,1596.08 3101.86,1597.34 3102.89,1598.10 3104.17,1598.35"/>
    </edge>
    <edge id=":1/15_5" function="internal">
        <lane id=":1/15_5_0" index="0" speed="13.90" length="50" shape="3100.55,1594.32 3101.10,1597.48 3101.28,1600.00 3101.10,1602.52 3100.55,1605.68"/>
    </edge>
    <edge id=":1/15_6" function="internal">
        <lane id=":1/15_6_0" index="0" speed="13.90" length="50" shape="3100.55,1594.32 3100.72,1597.53 3099.78,1599.82 3097.72,1601.19 3094.54,1601.65"/>
    </edge>
    <edge id=":1/15_7" function="internal">
        <lane id=":1/15_7_0" index="0" speed="13.90" length="50" shape="3100.55,1594.32 3099.99,1595.70 3099.26,1596.26 3098.37,1596.02 3097.32,1594.97"/>
    </edge>
    <edge id=":1/15_8" function="internal">
        <lane id=":1/15_8_0" index="0" speed="13.90" length="50" shape="3094.54,1598.35 3096.01,1598.14 3096.96,1597.50 3097.40,1596.45 3097.32,1594.97"/>
    </edge>
    <edge id=":1/15_9" function="internal">
        <lane id=":1/15_9_0" index="0" speed="13.90" length="50" shape="3094.54,1598.35 3104.17,1598.35"/>
    </edge>
    <edge id=":1/15_10" function="internal">
        <lane id=":1/15_10_0" index="0" speed="13.90" length="50" shape="3094.54,1598.35 3097.72,1598.81 3099.58,1600.05"/>
    </edge>
    <edge id=":1/15_11" function="internal">
        <lane id=":1/15_11_0" index="0" speed="13.90" length="50" shape="3094.54,1598.35 3095.78,1599.18 3096.19,1600.00"/>
    </edge>
    <edge id=":1/15_18" function="internal">
        <lane id=":1/15_18_0" index="0" speed="13.90" length="50" shape="3099.58,1600.05 3099.78,1600.18 3100.72,1602.47 3100.55,1605.68"/>
    </edge>
    <edge id=":1/15_19" function="internal">
        <lane id=":1/15_19_0" index="0" speed="13.90" length="50" shape="3096.19,1600.00 3095.78,1600.83 3094.54,1601.65"/>
    </edge>
    <edge id=":1/15_12" function="internal">
        <lane id=":1/15_12_0" index="0" speed="13.90" length="50" shape="3097.32,1605.03 3097.40,1603.55 3096.96,1602.50 3096.01,1601.86 3094.54,1601.65"/>
    </edge>
    <edge id=":1/15_13" function="internal">
        <lane id=":1/15_13_0" index="0" speed="13.90" length="50" shape="3097.32,1605.03 3097.87,1602.08 3098.05,1600.00 3097.87,1597.92 3097.32,1594.97"/>
    </edge>
    <edge id=":1/15_14" function="internal">
        <lane id=":1/15_14_0" index="0" speed="13.90" length="50" shape="3097.32,1605.03 3098.24,1602.11 3099.69,1600.02 3101.67,1598.77 3104.17,1598.35"/>
    </edge>
    <edge id=":1/15_15" function="internal">
        <lane id=":1/15_15_0" index="0" speed="13.90" length="50" shape="3097.32,1605.03 3098.37,1603.98 3099.26,1603.74 3099.99,1604.30 3100.55,1605.68"/>
    </edge>
    <edge id=":1/16_0" function="internal">
        <lane id=":1/16_0_0" index="0" speed="13.90" length="50" shape="3200.55,1594.32 3201.10,1597.48 3201.28,1600.00 3201.10,1602.52 3200.55,1605.68"/>
    </edge>
    <edge id=":1/16_1" function="internal">
        <lane id=":1/16_1_0" index="0" speed="13.90" length="50" shape="3200.55,1594.32 3200.72,1597.53 3199.78,1599.82 3199.65,1599.91"/>
    </edge>
    <edge id=":1/16_2" function="internal">
        <lane id=":1/16_2_0" index="0" speed="13.90" length="50" shape="3200.55,1594.32 3199.99,1595.70 3199.26,1596.26"/>
    </edge>
    <edge id=":1/16_9" function="internal">
        <lane id=":1/16_9_0" index="0" speed="13.90" length="50" shape="3199.65,1599.91 3197.72,1601.19 3194.54,1601.65"/>
    </edge>
    <edge id=":1/16_10" function="internal">
        <lane id=":1/16_10_0" index="0" speed="13.90" length="50" shape="3199.26,1596.26 3198.37,1596.02 3197.32,1594.97"/>
    </edge>
    <edge id=":1/16_3" function="internal">
        <lane id=":1/16_3_0" index="0" speed="13.90" length="50" shape="3194.54,1598.35 3196.01,1598.14 3196.96,1597.50 3197.40,1596.45 3197.32,1594.97"/>
    </edge>
    <edge id=":1/16_4" function="internal">
        <lane id=":1/16_4_0" index="0" speed="13.90" length="50" shape="3194.54,1598.35 3197.72,1598.81 3199.78,1600.18 3200.72,1602.47 3200.55,1605.68"/>
    </edge>
    <edge id=":1/16_5" function="internal">
        <lane id=":1/16_5_0" index="0" speed="13.90" length="50" shape="3194.54,1598.35 3195.78,1599.18 3196.19,1600.00 3195.78,1600.83 3194.54,1601.65"/>
    </edge>
    <edge id=":1/16_6" function="internal">
        <lane id=":1/16_6_0" index="0" speed="13.90" length="50" shape="3197.32,1605.03 3197.40,1603.55 3196.96,1602.50 3196.01,1601.86 3194.54,1601.65"/>
    </edge>
    <edge id=":1/16_7" function="internal">
        <lane id=":1/16_7_0" index="0" speed="13.90" length="50" shape="3197.32,1605.03 3197.87,1602.08 3198.05,1600.00 3197.87,1597.92 3197.32,1594.97"/>
    </edge>
    <edge id=":1/16_8" function="internal">
        <lane id=":1/16_8_0" index="0" speed="13.90" length="50" shape="3197.32,1605.03 3198.37,1603.98 3199.26,1603.74"/>
    </edge>
    <edge id=":1/16_11" function="internal">
        <lane id=":1/16_11_0" index="0" speed="13.90" length="50" shape="3199.26,1603.74 3199.99,1604.30 3200.55,1605.68"/>
    </edge>
    <edge id=":1/2_0" function="internal">
        <lane id=":1/2_0_0" index="0" speed="13.90" length="50" shape="1804.17,1601.65 1802.89,1601.90 1801.86,1602.66 1801.08,1603.92 1800.55,1605.68"/>
    </edge>
    <edge id=":1/2_1" function="internal">
        <lane id=":1/2_1_0" index="0" speed="13.90" length="50" shape="1804.17,1601.65 1794.54,1601.65"/>
    </edge>
    <edge id=":1/2_2" function="internal">
        <lane id=":1/2_2_0" index="0" speed="13.90" length="50" shape="1804.17,1601.65 1801.67,1601.23 1799.69,1599.98"/>
    </edge>
    <edge id=":1/2_3" function="internal">