<?xml version="1.0" encoding="UTF-8"?>

<!-- generated on Sun Feb  5 11:08:16 2017 by SUMO netconvert Version 0.27.1
<?xml version="1.0" encoding="UTF-8"?>

<configuration xmlns:xsi="http://www.w3.org/2001/XMLSchema-instance" xsi:noNamespaceSchemaLocation="http://sumo.dlr.de/xsd/netconvertConfiguration.xsd">

    <input>
        <type-files value="netconvert.osm.types.xml"/>
        <osm-files value="../osm/madrid_las_tablas.osm"/>
    </input>

    <output>
        <output-file value="madrid_las_tablas.net.xml"/>
        <plain-output-prefix value="madrid_las_tablas"/>
        <output.street-names value="true"/>
        <output.original-names value="true"/>
    </output>

    <projection>
        <proj.utm value="true"/>
        <proj.plain-geo value="true"/>
    </projection>

    <edge_removal>
        <remove-edges.by-type value="highway.bridleway,highway.cycleway,highway.footway,highway.ford,highway.path,highway.pedestrian,highway.service,highway.stairs,highway.step,highway.steps,highway.track,railway.light_rail,railway.preserved,railway.rail,railway.subway,railway.tram"/>
    </edge_removal>

</configuration>
-->

<nodes version="0.27" xmlns:xsi="http://www.w3.org/2001/XMLSchema-instance" xsi:noNamespaceSchemaLocation="http://sumo.dlr.de/xsd/nodes_file.xsd">
    <node id="1046902466" x="-3.664344" y="40.509014" type="priority"/>
    <node id="1046902489" x="-3.663175" y="40.508199" type="priority"/>
    <node id="1046902497" x="-3.664685" y="40.509129" type="priority"/>
    <node id="1046902626" x="-3.662059" y="40.507275" type="priority"/>
    <node id="1046902641" x="-3.670988" y="40.514110" type="priority"/>
    <node id="1046902645" x="-3.664191" y="40.508002" type="priority"/>
    <node id="1046902743" x="-3.671464" y="40.514733" type="priority"/>
    <node id="1046902958" x="-3.659392" y="40.503515" type="priority"/>
    <node id="1046903014" x="-3.676064" y="40.510724" type="priority"/>
    <node id="1046903019" x="-3.670720" y="40.513741" type="priority"/>
    <node id="1046903085" x="-3.671028" y="40.514163" type="priority"/>
    <node id="1046903138" x="-3.661951" y="40.507200" type="priority"/>
    <node id="1046903220" x="-3.664399" y="40.509515" type="priority"/>
    <node id="1121592035" x="-3.666469" y="40.496239" type="unregulated"/>
    <node id="1121592048" x="-3.666170" y="40.496500" type="priority"/>
    <node id="1138794812" x="-3.666424" y="40.495733" type="unregulated"/>
    <node id="1163944655" x="-3.665140" y="40.511906" type="priority"/>
    <node id="1163944857" x="-3.661584" y="40.498766" type="priority"/>
    <node id="1163944877" x="-3.663077" y="40.502904" type="priority"/>
    <node id="1163944955" x="-3.659451" y="40.502120" type="priority"/>
    <node id="1163945218" x="-3.659155" y="40.502463" type="priority"/>
    <node id="1163945436" x="-3.663203" y="40.502735" type="priority"/>
    <node id="1163945557" x="-3.665894" y="40.512531" type="priority"/>
    <node id="1163945645" x="-3.661081" y="40.499096" type="priority"/>
    <node id="1163945649" x="-3.661337" y="40.501232" type="priority"/>
    <node id="1168639710" x="-3.666909" y="40.511751" type="priority"/>
    <node id="1168640513" x="-3.656613" y="40.504559" type="priority"/>
    <node id="1168640993" x="-3.656444" y="40.503522" type="priority"/>
    <node id="1168641093" x="-3.654994" y="40.503214" type="priority"/>
    <node id="1449224633" x="-3.658949" y="40.495749" type="priority"/>
    <node id="1449224634" x="-3.660694" y="40.495777" type="priority"/>
    <node id="1449224671" x="-3.659587" y="40.496801" type="priority"/>
    <node id="1449224674" x="-3.657725" y="40.496873" type="priority"/>
    <node id="1449224686" x="-3.659303" y="40.497064" type="priority"/>
    <node id="1449224744" x="-3.658730" y="40.497596" type="priority"/>
    <node id="1449224775" x="-3.658332" y="40.497953" type="priority"/>
    <node id="1449224810" x="-3.656949" y="40.498160" type="priority"/>
    <node id="1449224877" x="-3.656596" y="40.498632" type="priority"/>
    <node id="1449224884" x="-3.656689" y="40.498693" type="priority"/>
    <node id="146546639" x="-3.654679" y="40.514323" type="priority"/>
    <node id="146546647" x="-3.653651" y="40.514789" type="priority"/>
    <node id="146546650" x="-3.652352" y="40.515153" type="priority"/>
    <node id="1502299170" x="-3.664583" y="40.517890" type="priority"/>
    <node id="1628059727" x="-3.668245" y="40.495320" type="unregulated"/>
    <node id="1746590484" x="-3.651980" y="40.511142" type="priority"/>
    <node id="1746590521" x="-3.654844" y="40.513048" type="priority"/>
    <node id="1903719973" x="-3.653599" y="40.515311" type="priority"/>
    <node id="2041851339" x="-3.680277" y="40.507555" type="priority"/>
    <node id="2041851340" x="-3.680570" y="40.507673" type="priority"/>
    <node id="2068844703" x="-3.677797" y="40.513582" type="priority"/>
    <node id="2068844760" x="-3.661602" y="40.515103" type="priority"/>
    <node id="2068844766" x="-3.662040" y="40.515401" type="priority"/>
    <node id="2068844776" x="-3.671622" y="40.515680" type="priority"/>
    <node id="2068844786" x="-3.670652" y="40.515816" type="priority"/>
    <node id="2068844790" x="-3.671249" y="40.515815" type="unregulated"/>
    <node id="2068844792" x="-3.670963" y="40.515839" type="priority"/>
    <node id="2089433540" x="-3.660384" y="40.501202" type="priority"/>
    <node id="2089433541" x="-3.665281" y="40.496640" type="priority"/>
    <node id="2089433553" x="-3.656709" y="40.498988" type="traffic_light" tl="2089433553"/>
    <node id="2089433564" x="-3.660920" y="40.500583" type="priority"/>
    <node id="2089433593" x="-3.654868" y="40.514051" type="priority"/>
    <node id="2089433605" x="-3.653499" y="40.514832" type="priority"/>
    <node id="2089433606" x="-3.653745" y="40.514944" type="unregulated"/>
    <node id="2089433608" x="-3.654687" y="40.515169" type="priority"/>
    <node id="2089433624" x="-3.654197" y="40.515740" type="priority"/>
    <node id="2089433638" x="-3.651965" y="40.517590" type="unregulated"/>
    <node id="2089433640" x="-3.651968" y="40.517737" type="unregulated"/>
    <node id="2089433641" x="-3.653000" y="40.517783" type="unregulated"/>
    <node id="21282011" x="-3.652136" y="40.508109" type="unregulated"/>
    <node id="21702320" x="-3.659527" y="40.509200" type="priority"/>
    <node id="21702324" x="-3.657840" y="40.510301" type="priority"/>
    <node id="21702327" x="-3.662998" y="40.510036" type="priority"/>
    <node id="21702330" x="-3.660718" y="40.509171" type="priority"/>
    <node id="21702334" x="-3.656797" y="40.512195" type="priority"/>
    <node id="21702336" x="-3.655321" y="40.513965" type="priority"/>
    <node id="21702337" x="-3.656417" y="40.513254" type="priority"/>
    <node id="21702341" x="-3.658624" y="40.510889" type="priority"/>
    <node id="21702343" x="-3.659460" y="40.510307" type="priority"/>
    <node id="21702346" x="-3.661515" y="40.510286" type="priority"/>
    <node id="21702350" x="-3.665211" y="40.511854" type="priority"/>
    <node id="21702355" x="-3.665962" y="40.512485" type="priority"/>
    <node id="21702356" x="-3.666989" y="40.513422" type="priority"/>
    <node id="21702362" x="-3.674046" y="40.517975" type="unregulated"/>
    <node id="21702482" x="-3.674087" y="40.517768" type="unregulated"/>
    <node id="21702483" x="-3.672851" y="40.517203" type="priority"/>
    <node id="21713991" x="-3.652921" y="40.517191" type="unregulated"/>
    <node id="221310551" x="-3.661305" y="40.510465" type="priority"/>
    <node id="221313799" x="-3.659756" y="40.513353" type="priority"/>
    <node id="221313800" x="-3.665235" y="40.517349" type="priority"/>
    <node id="221333227" x="-3.658381" y="40.500271" type="priority"/>
    <node id="221333228" x="-3.658384" y="40.500530" type="priority"/>
    <node id="221333230" x="-3.658598" y="40.500690" type="priority"/>
    <node id="221333246" x="-3.653811" y="40.497156" type="priority"/>
    <node id="221333301" x="-3.653662" y="40.497295" type="priority"/>
    <node id="221333305" x="-3.653907" y="40.497712" type="priority"/>
    <node id="2248941009" x="-3.666262" y="40.500237" type="priority"/>
    <node id="2248941013" x="-3.669612" y="40.500489" type="traffic_light" tl="2248941013"/>
    <node id="2248941018" x="-3.669725" y="40.500574" type="priority"/>
    <node id="2248941021" x="-3.666921" y="40.501314" type="priority"/>
    <node id="2248941036" x="-3.666355" y="40.501487" type="priority"/>
    <node id="2248941045" x="-3.666174" y="40.501552" type="priority"/>
    <node id="239716724" x="-3.659722" y="40.513893" type="priority"/>
    <node id="239736431" x="-3.664609" y="40.512982" type="priority"/>
    <node id="2415419408" x="-3.678489" y="40.510088" type="priority"/>
    <node id="2415419430" x="-3.679853" y="40.513043" type="priority"/>
    <node id="2415419437" x="-3.678434" y="40.513403" type="priority"/>
    <node id="24905153" x="-3.659413" y="40.509373" type="priority"/>
    <node id="24905157" x="-3.659451" y="40.509557" type="priority"/>
    <node id="24905647" x="-3.660141" y="40.509951" type="priority"/>
    <node id="24905807" x="-3.672689" y="40.517755" type="unregulated"/>
    <node id="24905818" x="-3.674126" y="40.517706" type="unregulated"/>
    <node id="24908995" x="-3.657195" y="40.509403" type="priority"/>
    <node id="24908996" x="-3.657190" y="40.509220" type="priority"/>
    <node id="24908997" x="-3.656399" y="40.509152" type="priority"/>
    <node id="24909003" x="-3.658548" y="40.508523" type="priority"/>
    <node id="24909147" x="-3.657184" y="40.509536" type="priority"/>
    <node id="24909156" x="-3.658258" y="40.511420" type="priority"/>
    <node id="24909159" x="-3.658504" y="40.510584" type="priority"/>
    <node id="24909172" x="-3.656083" y="40.508730" type="priority"/>
    <node id="24909177" x="-3.657872" y="40.508237" type="priority"/>
    <node id="24910711" x="-3.658773" y="40.507211" type="priority"/>
    <node id="24910721" x="-3.658290" y="40.505423" type="priority"/>
    <node id="24911170" x="-3.658061" y="40.505429" type="priority"/>
    <node id="24911182" x="-3.657557" y="40.506606" type="priority"/>
    <node id="24911196" x="-3.657643" y="40.505228" type="priority"/>
    <node id="24911327" x="-3.652959" y="40.507935" type="priority"/>
    <node id="24911338" x="-3.652548" y="40.507741" type="unregulated"/>
    <node id="24911572" x="-3.652303" y="40.507943" type="unregulated"/>
    <node id="24975132" x="-3.658725" y="40.504805" type="priority"/>
    <node id="24975707" x="-3.658240" y="40.503696" type="priority"/>
    <node id="24975868" x="-3.659792" y="40.502775" type="priority"/>
    <node id="24976046" x="-3.659556" y="40.502659" type="priority"/>
    <node id="24976133" x="-3.661579" y="40.499920" type="priority"/>
    <node id="24976137" x="-3.661339" y="40.501025" type="priority"/>
    <node id="24977015" x="-3.664427" y="40.497642" type="priority"/>
    <node id="24977016" x="-3.662534" y="40.499300" type="priority"/>
    <node id="24977027" x="-3.662837" y="40.498340" type="priority"/>
    <node id="24977050" x="-3.663914" y="40.498341" type="priority"/>
    <node id="2504882060" x="-3.669514" y="40.500570" type="traffic_light" tl="2504882060"/>
    <node id="254531918" x="-3.666721" y="40.496312" type="priority"/>
    <node id="254531925" x="-3.669054" y="40.498601" type="priority"/>
    <node id="255023279" x="-3.677851" y="40.507633" type="traffic_light" tl="255023279"/>
    <node id="255023280" x="-3.675137" y="40.500085" type="priority"/>
    <node id="255023337" x="-3.676942" y="40.505125" type="priority"/>
    <node id="255023351" x="-3.676558" y="40.504049" type="priority"/>
    <node id="255023429" x="-3.674674" y="40.499026" type="priority"/>
    <node id="255023430" x="-3.674706" y="40.499639" type="priority"/>
    <node id="255023431" x="-3.672949" y="40.505893" type="priority"/>
    <node id="255023432" x="-3.672556" y="40.506484" type="priority"/>
    <node id="255023446" x="-3.675866" y="40.502111" type="priority"/>
    <node id="255023447" x="-3.675738" y="40.502143" type="priority"/>
    <node id="255023450" x="-3.673989" y="40.502191" type="priority"/>
    <node id="255023451" x="-3.673775" y="40.502153" type="priority"/>
    <node id="255023465" x="-3.674518" y="40.500314" type="priority"/>
    <node id="255023466" x="-3.674303" y="40.500287" type="priority"/>
    <node id="255023474" x="-3.674906" y="40.499810" type="priority"/>
    <node id="255250026" x="-3.678787" y="40.506131" type="priority"/>
    <node id="255250040" x="-3.678667" y="40.505792" type="priority"/>
    <node id="255250045" x="-3.678405" y="40.506210" type="priority"/>
    <node id="255250052" x="-3.678153" y="40.505522" type="priority"/>
    <node id="255250053" x="-3.677940" y="40.504919" type="priority"/>
    <node id="255250577" x="-3.677554" y="40.503843" type="priority"/>
    <node id="255250615" x="-3.676890" y="40.503221" type="priority"/>
    <node id="255250702" x="-3.676806" y="40.502967" type="priority"/>
    <node id="255250703" x="-3.676218" y="40.503087" type="priority"/>
    <node id="255250731" x="-3.677599" y="40.502806" type="priority"/>
    <node id="255250904" x="-3.677075" y="40.502529" type="priority"/>
    <node id="255250986" x="-3.676987" y="40.501086" type="priority"/>
    <node id="255251002" x="-3.676598" y="40.501169" type="priority"/>
    <node id="255251211" x="-3.676864" y="40.500748" type="priority"/>
    <node id="255251214" x="-3.676085" y="40.500917" type="priority"/>
    <node id="255251220" x="-3.675481" y="40.501044" type="priority"/>
    <node id="255251406" x="-3.677897" y="40.505956" type="priority"/>
    <node id="255251416" x="-3.677289" y="40.506080" type="priority"/>
    <node id="255253968" x="-3.678407" y="40.507982" type="traffic_light" tl="255253968"/>
    <node id="255253969" x="-3.679826" y="40.507659" type="priority"/>
    <node id="255254130" x="-3.679351" y="40.505656" type="priority"/>
    <node id="255254131" x="-3.679008" y="40.504690" type="priority"/>
    <node id="255254274" x="-3.678282" y="40.502663" type="priority"/>
    <node id="255256467" x="-3.679694" y="40.506605" type="priority"/>
    <node id="255256790" x="-3.678623" y="40.506826" type="priority"/>
    <node id="255257985" x="-3.678624" y="40.503620" type="priority"/>
    <node id="255258291" x="-3.677931" y="40.501682" type="priority"/>
    <node id="255258429" x="-3.677550" y="40.500614" type="priority"/>
    <node id="255259059" x="-3.677207" y="40.499656" type="priority"/>
    <node id="255259880" x="-3.677336" y="40.503226" type="priority"/>
    <node id="255260399" x="-3.677622" y="40.507038" type="priority"/>
    <node id="255260632" x="-3.676136" y="40.499880" type="priority"/>
    <node id="255260635" x="-3.675284" y="40.497504" type="priority"/>
    <node id="255260651" x="-3.675911" y="40.498106" type="priority"/>
    <node id="255260696" x="-3.676479" y="40.497626" type="priority"/>
    <node id="255260697" x="-3.674322" y="40.498074" type="priority"/>
    <node id="255260771" x="-3.675015" y="40.497930" type="priority"/>
    <node id="255260774" x="-3.675791" y="40.497767" type="priority"/>
    <node id="255260891" x="-3.675533" y="40.498183" type="priority"/>
    <node id="255260893" x="-3.676356" y="40.500493" type="priority"/>
    <node id="255260910" x="-3.676821" y="40.498578" type="priority"/>
    <node id="255260911" x="-3.675750" y="40.498800" type="priority"/>
    <node id="255261896" x="-3.678312" y="40.508004" type="priority"/>
    <node id="255261899" x="-3.677968" y="40.507749" type="priority"/>
    <node id="255261900" x="-3.677816" y="40.507755" type="traffic_light" tl="255261900"/>
    <node id="255261904" x="-3.677607" y="40.508238" type="priority"/>
    <node id="255261982" x="-3.677708" y="40.507639" type="traffic_light" tl="255261982"/>
    <node id="255262207" x="-3.667912" y="40.510410" type="priority"/>
    <node id="255262208" x="-3.667753" y="40.510287" type="priority"/>
    <node id="255262210" x="-3.667620" y="40.509827" type="priority"/>
    <node id="255262347" x="-3.659136" y="40.500550" type="priority"/>
    <node id="255262791" x="-3.670166" y="40.508473" type="priority"/>
    <node id="255262792" x="-3.669997" y="40.508356" type="priority"/>
    <node id="255262794" x="-3.669981" y="40.508075" type="priority"/>
    <node id="255262798" x="-3.670518" y="40.507911" type="priority"/>
    <node id="255262799" x="-3.670687" y="40.508012" type="priority"/>
    <node id="255262826" x="-3.670577" y="40.508461" type="priority"/>
    <node id="255262895" x="-3.670106" y="40.507952" type="priority"/>
    <node id="255262896" x="-3.670723" y="40.508339" type="priority"/>
    <node id="255263021" x="-3.656911" y="40.497640" type="priority"/>
    <node id="255263036" x="-3.656996" y="40.498212" type="priority"/>
    <node id="255263082" x="-3.657141" y="40.498308" type="priority"/>
    <node id="255264531" x="-3.657028" y="40.498406" type="priority"/>
    <node id="255264620" x="-3.656336" y="40.498749" type="priority"/>
    <node id="255264622" x="-3.656930" y="40.498347" type="priority"/>
    <node id="255264642" x="-3.656610" y="40.498926" type="priority"/>
    <node id="255264703" x="-3.663622" y="40.496298" type="priority"/>
    <node id="255264829" x="-3.663480" y="40.496429" type="priority"/>
    <node id="255264975" x="-3.658011" y="40.498232" type="priority"/>
    <node id="255265110" x="-3.672461" y="40.505597" type="priority"/>
    <node id="255265423" x="-3.669547" y="40.503606" type="priority"/>
    <node id="255265425" x="-3.670508" y="40.502780" type="priority"/>
    <node id="255265427" x="-3.670446" y="40.504222" type="priority"/>
    <node id="255265430" x="-3.671242" y="40.504764" type="priority"/>
    <node id="255265463" x="-3.673968" y="40.505137" type="priority"/>
    <node id="255265464" x="-3.673278" y="40.504673" type="priority"/>
    <node id="255265465" x="-3.673091" y="40.504541" type="traffic_light" tl="255265465"/>
    <node id="255265537" x="-3.672367" y="40.506349" type="priority"/>
    <node id="255265544" x="-3.672625" y="40.505745" type="priority"/>
    <node id="255265545" x="-3.672733" y="40.505785" type="priority"/>
    <node id="255265708" x="-3.672176" y="40.506133" type="priority"/>
    <node id="255265747" x="-3.674092" y="40.507108" type="priority"/>
    <node id="255265788" x="-3.671596" y="40.507274" type="priority"/>
    <node id="255265789" x="-3.671426" y="40.507168" type="priority"/>
    <node id="255265799" x="-3.666293" y="40.503653" type="priority"/>
    <node id="255279961" x="-3.673653" y="40.496038" type="priority"/>
    <node id="255279963" x="-3.673065" y="40.496019" type="priority"/>
    <node id="255279965" x="-3.672938" y="40.495900" type="priority"/>
    <node id="255279966" x="-3.672894" y="40.495673" type="priority"/>
    <node id="255279967" x="-3.673029" y="40.495469" type="priority"/>
    <node id="255280062" x="-3.676131" y="40.496649" type="priority"/>
    <node id="255280063" x="-3.673993" y="40.497141" type="priority"/>
    <node id="255280064" x="-3.673804" y="40.497259" type="priority"/>
    <node id="255280077" x="-3.676094" y="40.496550" type="priority"/>
    <node id="255280078" x="-3.673940" y="40.496992" type="priority"/>
    <node id="255280079" x="-3.673753" y="40.497119" type="priority"/>
    <node id="255280253" x="-3.672980" y="40.496311" type="priority"/>
    <node id="255281459" x="-3.660008" y="40.499505" type="priority"/>
    <node id="255456498" x="-3.664570" y="40.513608" type="priority"/>
    <node id="255456740" x="-3.664445" y="40.513057" type="priority"/>
    <node id="255456742" x="-3.663938" y="40.513150" type="priority"/>
    <node id="255456953" x="-3.664754" y="40.517767" type="priority"/>
    <node id="255457031" x="-3.664999" y="40.517892" type="priority"/>
    <node id="255457033" x="-3.665417" y="40.517728" type="priority"/>
    <node id="255457194" x="-3.659786" y="40.513021" type="priority"/>
    <node id="255457258" x="-3.659553" y="40.513399" type="priority"/>
    <node id="255457259" x="-3.659350" y="40.513317" type="priority"/>
    <node id="255458356" x="-3.664903" y="40.517351" type="priority"/>
    <node id="255459334" x="-3.667263" y="40.517930" type="priority"/>
    <node id="255459806" x="-3.664693" y="40.513103" type="priority"/>
    <node id="255460602" x="-3.665348" y="40.511714" type="priority"/>
    <node id="255460624" x="-3.666120" y="40.512354" type="priority"/>
    <node id="255460627" x="-3.666276" y="40.512271" type="priority"/>
    <node id="255460628" x="-3.665426" y="40.511583" type="priority"/>
    <node id="255461474" x="-3.667903" y="40.514529" type="priority"/>
    <node id="255483670" x="-3.667778" y="40.502392" type="priority"/>
    <node id="255483671" x="-3.667669" y="40.502329" type="priority"/>
    <node id="255483672" x="-3.669452" y="40.503538" type="priority"/>
    <node id="255484799" x="-3.675052" y="40.496873" type="priority"/>
    <node id="255626650" x="-3.675878" y="40.495571" type="priority"/>
    <node id="255626652" x="-3.675650" y="40.495523" type="priority"/>
    <node id="255626654" x="-3.675673" y="40.495310" type="priority"/>
    <node id="255626829" x="-3.675610" y="40.495458" type="priority"/>
    <node id="255626830" x="-3.673865" y="40.495751" type="priority"/>
    <node id="255626831" x="-3.673817" y="40.495570" type="priority"/>
    <node id="255626843" x="-3.675843" y="40.495273" type="priority"/>
    <node id="255627453" x="-3.664853" y="40.504535" type="priority"/>
    <node id="255627455" x="-3.664978" y="40.504356" type="priority"/>
    <node id="255627459" x="-3.665432" y="40.504663" type="priority"/>
    <node id="255627617" x="-3.664719" y="40.504820" type="priority"/>
    <node id="255627620" x="-3.664831" y="40.504905" type="priority"/>
    <node id="255627621" x="-3.665367" y="40.504520" type="priority"/>
    <node id="255627623" x="-3.665118" y="40.504344" type="priority"/>
    <node id="255627790" x="-3.663032" y="40.503101" type="priority"/>
    <node id="255628081" x="-3.662939" y="40.502711" type="priority"/>
    <node id="255628155" x="-3.667775" y="40.495441" type="priority"/>
    <node id="255628189" x="-3.666386" y="40.496097" type="priority"/>
    <node id="255628391" x="-3.665911" y="40.495594" type="priority"/>
    <node id="255628412" x="-3.659247" y="40.500118" type="priority"/>
    <node id="255628413" x="-3.659155" y="40.500277" type="priority"/>
    <node id="255628448" x="-3.658888" y="40.500092" type="priority"/>
    <node id="255628532" x="-3.661016" y="40.498808" type="priority"/>
    <node id="255628534" x="-3.661168" y="40.498683" type="priority"/>
    <node id="255628538" x="-3.661502" y="40.498875" type="priority"/>
    <node id="255628541" x="-3.661047" y="40.498657" type="priority"/>
    <node id="255628546" x="-3.661015" y="40.498906" type="priority"/>
    <node id="255628547" x="-3.661253" y="40.499047" type="priority"/>
    <node id="255628548" x="-3.661250" y="40.498671" type="priority"/>
    <node id="255628550" x="-3.658870" y="40.497471" type="priority"/>
    <node id="255628559" x="-3.658990" y="40.497353" type="priority"/>
    <node id="255629102" x="-3.673662" y="40.503332" type="priority"/>
    <node id="255629109" x="-3.673471" y="40.503203" type="priority"/>
    <node id="25587575" x="-3.678999" y="40.513330" type="priority"/>
    <node id="25587598" x="-3.669979" y="40.516565" type="priority"/>
    <node id="25587599" x="-3.669810" y="40.516620" type="priority"/>
    <node id="25587604" x="-3.667947" y="40.517665" type="unregulated"/>
    <node id="255961297" x="-3.680096" y="40.512986" type="priority"/>
    <node id="255961299" x="-3.678140" y="40.508311" type="priority"/>
    <node id="255961324" x="-3.678736" y="40.509998" type="priority"/>
    <node id="255961472" x="-3.678222" y="40.508682" type="priority"/>
    <node id="255962278" x="-3.672158" y="40.501385" type="priority"/>
    <node id="255962279" x="-3.674016" y="40.502093" type="priority"/>
    <node id="255962280" x="-3.670394" y="40.500165" type="priority"/>
    <node id="255962281" x="-3.675697" y="40.502029" type="priority"/>
    <node id="255962282" x="-3.675820" y="40.502007" type="priority"/>
    <node id="255962288" x="-3.675075" y="40.502125" type="priority"/>
    <node id="255962291" x="-3.673805" y="40.502047" type="priority"/>
    <node id="255962293" x="-3.672901" y="40.501783" type="priority"/>
    <node id="255962295" x="-3.670285" y="40.500097" type="priority"/>
    <node id="255962607" x="-3.669548" y="40.499705" type="priority"/>
    <node id="255962704" x="-3.677901" y="40.501593" type="priority"/>
    <node id="255964006" x="-3.675015" y="40.496771" type="priority"/>
    <node id="255964218" x="-3.665929" y="40.495424" type="unregulated"/>
    <node id="255964537" x="-3.659813" y="40.499805" type="priority"/>
    <node id="256155181" x="-3.662011" y="40.506938" type="priority"/>
    <node id="256424930" x="-3.675913" y="40.508358" type="priority"/>
    <node id="256425744" x="-3.675561" y="40.508112" type="priority"/>
    <node id="256427877" x="-3.676867" y="40.501909" type="priority"/>
    <node id="256428615" x="-3.676824" y="40.501801" type="priority"/>
    <node id="256431088" x="-3.673248" y="40.503051" type="priority"/>
    <node id="256431142" x="-3.672461" y="40.502515" type="priority"/>
    <node id="256521501" x="-3.677301" y="40.508162" type="traffic_light" tl="256521501"/>
    <node id="256521542" x="-3.677377" y="40.508304" type="traffic_light" tl="256521542"/>
    <node id="256521664" x="-3.677525" y="40.508093" type="priority"/>
    <node id="256521796" x="-3.679965" y="40.507343" type="priority"/>
    <node id="256521797" x="-3.678378" y="40.507741" type="traffic_light" tl="256521797"/>
    <node id="256521798" x="-3.678179" y="40.507842" type="priority"/>
    <node id="256522193" x="-3.679341" y="40.511513" type="priority"/>
    <node id="256522474" x="-3.675778" y="40.512599" type="priority"/>
    <node id="256522569" x="-3.672048" y="40.512636" type="priority"/>
    <node id="256522594" x="-3.671620" y="40.512820" type="priority"/>
    <node id="256522596" x="-3.671600" y="40.514051" type="priority"/>
    <node id="256522722" x="-3.671507" y="40.514306" type="priority"/>
    <node id="256522723" x="-3.671556" y="40.513896" type="priority"/>
    <node id="256522724" x="-3.671398" y="40.513964" type="priority"/>
    <node id="256522727" x="-3.671327" y="40.514297" type="priority"/>
    <node id="256522807" x="-3.669307" y="40.512920" type="priority"/>
    <node id="256523033" x="-3.675267" y="40.511361" type="priority"/>
    <node id="256523058" x="-3.678262" y="40.508778" type="priority"/>
    <node id="256523093" x="-3.672691" y="40.510845" type="priority"/>
    <node id="256523119" x="-3.672744" y="40.510927" type="priority"/>
    <node id="256523128" x="-3.673498" y="40.512053" type="priority"/>
    <node id="256523310" x="-3.661577" y="40.502300" type="priority"/>
    <node id="256523311" x="-3.661847" y="40.502353" type="priority"/>
    <node id="256523312" x="-3.659669" y="40.500943" type="traffic_light" tl="256523312"/>
    <node id="256523313" x="-3.659633" y="40.501042" type="priority"/>
    <node id="256581686" x="-3.671419" y="40.503396" type="priority"/>
    <node id="256581746" x="-3.672205" y="40.503938" type="priority"/>
    <node id="256581766" x="-3.671561" y="40.501898" type="traffic_light" tl="256581766"/>
    <node id="256581767" x="-3.671451" y="40.501830" type="traffic_light" tl="256581767"/>
    <node id="256581796" x="-3.671979" y="40.501387" type="priority"/>
    <node id="256581797" x="-3.672068" y="40.501454" type="priority"/>
    <node id="256581823" x="-3.670310" y="40.500238" type="priority"/>
    <node id="256581824" x="-3.670199" y="40.500176" type="priority"/>
    <node id="256581835" x="-3.669497" y="40.499316" type="priority"/>
    <node id="256581994" x="-3.667252" y="40.502833" type="priority"/>
    <node id="256582051" x="-3.668071" y="40.504870" type="priority"/>
    <node id="256582052" x="-3.667972" y="40.504802" type="priority"/>
    <node id="256582148" x="-3.666950" y="40.505793" type="priority"/>
    <node id="256582149" x="-3.666878" y="40.505743" type="priority"/>
    <node id="256582162" x="-3.666835" y="40.505890" type="priority"/>
    <node id="256582163" x="-3.666761" y="40.505839" type="priority"/>
    <node id="256582947" x="-3.662330" y="40.502804" type="priority"/>
    <node id="256667834" x="-3.669034" y="40.504045" type="priority"/>
    <node id="256668078" x="-3.668933" y="40.503974" type="priority"/>
    <node id="256668083" x="-3.670413" y="40.502714" type="priority"/>
    <node id="256668084" x="-3.666199" y="40.503587" type="priority"/>
    <node id="256668088" x="-3.667181" y="40.502745" type="priority"/>
    <node id="2575177380" x="-3.670809" y="40.516604" type="priority"/>
    <node id="257714627" x="-3.670530" y="40.511938" type="priority"/>
    <node id="257714770" x="-3.666404" y="40.511077" type="priority"/>
    <node id="257715018" x="-3.666884" y="40.511660" type="priority"/>
    <node id="257715642" x="-3.666764" y="40.511078" type="priority"/>
    <node id="257716010" x="-3.666439" y="40.511725" type="priority"/>
    <node id="257716628" x="-3.661161" y="40.506956" type="priority"/>
    <node id="257716876" x="-3.661315" y="40.505589" type="priority"/>
    <node id="257717215" x="-3.669758" y="40.506023" type="priority"/>
    <node id="257717216" x="-3.668656" y="40.506958" type="traffic_light" tl="257717216"/>
    <node id="257717290" x="-3.670550" y="40.506562" type="priority"/>
    <node id="257717291" x="-3.669447" y="40.507488" type="priority"/>
    <node id="257717343" x="-3.670731" y="40.505197" type="priority"/>
    <node id="257717380" x="-3.671518" y="40.505742" type="priority"/>
    <node id="257717610" x="-3.670678" y="40.509396" type="priority"/>