<?xml version="1.0" encoding="UTF-8"?>

<!-- generated on 08/14/16 20:50:26 by SUMO netgenerate Version 0.23.0
<?xml version="1.0" encoding="UTF-8"?>

<configuration xmlns:xsi="http://www.w3.org/2001/XMLSchema-instance" xsi:noNamespaceSchemaLocation="http://sumo.dlr.de/xsd/netgenerateConfiguration.xsd">

    <grid_network>
        <grid value="true"/>
        <grid.number value="16"/>
        <grid.length value="150"/>
        <grid.attach-length value="30"/>
    </grid_network>

    <output>
        <output-file value="grid.net.xml"/>
        <plain-output-prefix value="grid"/>
    </output>

    <building_defaults>
        <default.lanenumber value="3"/>
    </building_defaults>

    <report>
        <verbose value="true"/>
    </report>

</configuration>
-->

<nodes version="0.13" xmlns:xsi="http://www.w3.org/2001/XMLSchema-instance" xsi:noNamespaceSchemaLocation="http://sumo.dlr.de/xsd/nodes_file.xsd">
    <location netOffset="0.00,0.00" convBoundary="0.00,0.00,2310.00,2310.00" origBoundary="0.00,0.00,2310.00,2310.00" projParameter="!"/>

    <node id="0/0" x="30.00" y="30.00" type="priority"/>
    <node id="0/1" x="30.00" y="180.00" type="priority"/>
    <node id="0/10" x="30.00" y="1530.00" type="priority"/>
    <node id="0/11" x="30.00" y="1680.00" type="priority"/>
    <node id="0/12" x="30.00" y="1830.00" type="priority"/>
    <node id="0/13" x="30.00" y="1980.00" type="priority"/>
    <node id="0/14" x="30.00" y="2130.00" type="priority"/>
    <node id="0/15" x="30.00" y="2280.00" type="priority"/>
    <node id="0/2" x="30.00" y="330.00" type="priority"/>
    <node id="0/3" x="30.00" y="480.00" type="priority"/>
    <node id="0/4" x="30.00" y="630.00" type="priority"/>
    <node id="0/5" x="30.00" y="780.00" type="priority"/>
    <node id="0/6" x="30.00" y="930.00" type="priority"/>
    <node id="0/7" x="30.00" y="1080.00" type="priority"/>
    <node id="0/8" x="30.00" y="1230.00" type="priority"/>
    <node id="0/9" x="30.00" y="1380.00" type="priority"/>
    <node id="1/0" x="180.00" y="30.00" type="priority"/>
    <node id="1/1" x="180.00" y="180.00" type="priority"/>
    <node id="1/10" x="180.00" y="1530.00" type="priority"/>
    <node id="1/11" x="180.00" y="1680.00" type="priority"/>
    <node id="1/12" x="180.00" y="1830.00" type="priority"/>
    <node id="1/13" x="180.00" y="1980.00" type="priority"/>
    <node id="1/14" x="180.00" y="2130.00" type="priority"/>
    <node id="1/15" x="180.00" y="2280.00" type="priority"/>
    <node id="1/2" x="180.00" y="330.00" type="priority"/>
    <node id="1/3" x="180.00" y="480.00" type="priority"/>
    <node id="1/4" x="180.00" y="630.00" type="priority"/>
    <node id="1/5" x="180.00" y="780.00" type="priority"/>
    <node id="1/6" x="180.00" y="930.00" type="priority"/>
    <node id="1/7" x="180.00" y="1080.00" type="priority"/>
    <node id="1/8" x="180.00" y="1230.00" type="priority"/>
    <node id="1/9" x="180.00" y="1380.00" type="priority"/>
    <node id="10/0" x="1530.00" y="30.00" type="priority"/>
    <node id="10/1" x="1530.00" y="180.00" type="priority"/>
    <node id="10/10" x="1530.00" y="1530.00" type="priority"/>
    <node id="10/11" x="1530.00" y="1680.00" type="priority"/>
    <node id="10/12" x="1530.00" y="1830.00" type="priority"/>
    <node id="10/13" x="1530.00" y="1980.00" type="priority"/>
    <node id="10/14" x="1530.00" y="2130.00" type="priority"/>
    <node id="10/15" x="1530.00" y="2280.00" type="priority"/>
    <node id="10/2" x="1530.00" y="330.00" type="priority"/>
    <node id="10/3" x="1530.00" y="480.00" type="priority"/>
    <node id="10/4" x="1530.00" y="630.00" type="priority"/>
    <node id="10/5" x="1530.00" y="780.00" type="priority"/>
    <node id="10/6" x="1530.00" y="930.00" type="priority"/>
    <node id="10/7" x="1530.00" y="1080.00" type="priority"/>
    <node id="10/8" x="1530.00" y="1230.00" type="priority"/>
    <node id="10/9" x="1530.00" y="1380.00" type="priority"/>
    <node id="11/0" x="1680.00" y="30.00" type="priority"/>
    <node id="11/1" x="1680.00" y="180.00" type="priority"/>
    <node id="11/10" x="1680.00" y="1530.00" type="priority"/>
    <node id="11/11" x="1680.00" y="1680.00" type="priority"/>
    <node id="11/12" x="1680.00" y="1830.00" type="priority"/>
    <node id="11/13" x="1680.00" y="1980.00" type="priority"/>
    <node id="11/14" x="1680.00" y="2130.00" type="priority"/>
    <node id="11/15" x="1680.00" y="2280.00" type="priority"/>
    <node id="11/2" x="1680.00" y="330.00" type="priority"/>
    <node id="11/3" x="1680.00" y="480.00" type="priority"/>
    <node id="11/4" x="1680.00" y="630.00" type="priority"/>
    <node id="11/5" x="1680.00" y="780.00" type="priority"/>
    <node id="11/6" x="1680.00" y="930.00" type="priority"/>
    <node id="11/7" x="1680.00" y="1080.00" type="priority"/>
    <node id="11/8" x="1680.00" y="1230.00" type="priority"/>
    <node id="11/9" x="1680.00" y="1380.00" type="priority"/>
    <node id="12/0" x="1830.00" y="30.00" type="priority"/>
    <node id="12/1" x="1830.00" y="180.00" type="priority"/>
    <node id="12/10" x="1830.00" y="1530.00" type="priority"/>
    <node id="12/11" x="1830.00" y="1680.00" type="priority"/>
    <node id="12/12" x="1830.00" y="1830.00" type="priority"/>
    <node id="12/13" x="1830.00" y="1980.00" type="priority"/>
    <node id="12/14" x="1830.00" y="2130.00" type="priority"/>
    <node id="12/15" x="1830.00" y="2280.00" type="priority"/>
    <node id="12/2" x="1830.00" y="330.00" type="priority"/>
    <node id="12/3" x="1830.00" y="480.00" type="priority"/>
    <node id="12/4" x="1830.00" y="630.00" type="priority"/>
    <node id="12/5" x="1830.00" y="780.00" type="priority"/>
    <node id="12/6" x="1830.00" y="930.00" type="priority"/>
    <node id="12/7" x="1830.00" y="1080.00" type="priority"/>
    <node id="12/8" x="1830.00" y="1230.00" type="priority"/>
    <node id="12/9" x="1830.00" y="1380.00" type="priority"/>
    <node id="13/0" x="1980.00" y="30.00" type="priority"/>
    <node id="13/1" x="1980.00" y="180.00" type="priority"/>
    <node id="13/10" x="1980.00" y="1530.00" type="priority"/>
    <node id="13/11" x="1980.00" y="1680.00" type="priority"/>
    <node id="13/12" x="1980.00" y="1830.00" type="priority"/>
    <node id="13/13" x="1980.00" y="1980.00" type="priority"/>
    <node id="13/14" x="1980.00" y="2130.00" type="priority"/>
    <node id="13/15" x="1980.00" y="2280.00" type="priority"/>
    <node id="13/2" x="1980.00" y="330.00" type="priority"/>
    <node id="13/3" x="1980.00" y="480.00" type="priority"/>
    <node id="13/4" x="1980.00" y="630.00" type="priority"/>
    <node id="13/5" x="1980.00" y="780.00" type="priority"/>
    <node id="13/6" x="1980.00" y="930.00" type="priority"/>
    <node id="13/7" x="1980.00" y="1080.00" type="priority"/>
    <node id="13/8" x="1980.00" y="1230.00" type="priority"/>
    <node id="13/9" x="1980.00" y="1380.00" type="priority"/>
    <node id="14/0" x="2130.00" y="30.00" type="priority"/>
    <node id="14/1" x="2130.00" y="180.00" type="priority"/>
    <node id="14/10" x="2130.00" y="1530.00" type="priority"/>
    <node id="14/11" x="2130.00" y="1680.00" type="priority"/>
    <node id="14/12" x="2130.00" y="1830.00" type="priority"/>
    <node id="14/13" x="2130.00" y="1980.00" type="priority"/>
    <node id="14/14" x="2130.00" y="2130.00" type="priority"/>
    <node id="14/15" x="2130.00" y="2280.00" type="priority"/>
    <node id="14/2" x="2130.00" y="330.00" type="priority"/>
    <node id="14/3" x="2130.00" y="480.00" type="priority"/>
    <node id="14/4" x="2130.00" y="630.00" type="priority"/>
    <node id="14/5" x="2130.00" y="780.00" type="priority"/>
    <node id="14/6" x="2130.00" y="930.00" type="priority"/>
    <node id="14/7" x="2130.00" y="1080.00" type="priority"/>
    <node id="14/8" x="2130.00" y="1230.00" type="priority"/>
    <node id="14/9" x="2130.00" y="1380.00" type="priority"/>
    <node id="15/0" x="2280.00" y="30.00" type="priority"/>
    <node id="15/1" x="2280.00" y="180.00" type="priority"/>
    <node id="15/10" x="2280.00" y="1530.00" type="priority"/>
    <node id="15/11" x="2280.00" y="1680.00" type="priority"/>
    <node id="15/12" x="2280.00" y="1830.00" type="priority"/>
    <node id="15/13" x="2280.00" y="1980.00" type="priority"/>
    <node id="15/14" x="2280.00" y="2130.00" type="priority"/>
    <node id="15/15" x="2280.00" y="2280.00" type="priority"/>
    <node id="15/2" x="2280.00" y="330.00" type="priority"/>
    <node id="15/3" x="2280.00" y="480.00" type="priority"/>
    <node id="15/4" x="2280.00" y="630.00" type="priority"/>
    <node id="15/5" x="2280.00" y="780.00" type="priority"/>
    <node id="15/6" x="2280.00" y="930.00" type="priority"/>
    <node id="15/7" x="2280.00" y="1080.00" type="priority"/>
    <node id="15/8" x="2280.00" y="1230.00" type="priority"/>
    <node id="15/9" x="2280.00" y="1380.00" type="priority"/>
    <node id="2/0" x="330.00" y="30.00" type="priority"/>
    <node id="2/1" x="330.00" y="180.00" type="priority"/>
    <node id="2/10" x="330.00" y="1530.00" type="priority"/>
    <node id="2/11" x="330.00" y="1680.00" type="priority"/>
    <node id="2/12" x="330.00" y="1830.00" type="priority"/>
    <node id="2/13" x="330.00" y="1980.00" type="priority"/>
    <node id="2/14" x="330.00" y="2130.00" type="priority"/>
    <node id="2/15" x="330.00" y="2280.00" type="priority"/>
    <node id="2/2" x="330.00" y="330.00" type="priority"/>
    <node id="2/3" x="330.00" y="480.00" type="priority"/>
    <node id="2/4" x="330.00" y="630.00" type="priority"/>
    <node id="2/5" x="330.00" y="780.00" type="priority"/>
    <node id="2/6" x="330.00" y="930.00" type="priority"/>
    <node id="2/7" x="330.00" y="1080.00" type="priority"/>
    <node id="2/8" x="330.00" y="1230.00" type="priority"/>
    <node id="2/9" x="330.00" y="1380.00" type="priority"/>
    <node id="3/0" x="480.00" y="30.00" type="priority"/>
    <node id="3/1" x="480.00" y="180.00" type="priority"/>
    <node id="3/10" x="480.00" y="1530.00" type="priority"/>
    <node id="3/11" x="480.00" y="1680.00" type="priority"/>
    <node id="3/12" x="480.00" y="1830.00" type="priority"/>
    <node id="3/13" x="480.00" y="1980.00" type="priority"/>
    <node id="3/14" x="480.00" y="2130.00" type="priority"/>
    <node id="3/15" x="480.00" y="2280.00" type="priority"/>
    <node id="3/2" x="480.00" y="330.00" type="priority"/>
    <node id="3/3" x="480.00" y="480.00" type="priority"/>
    <node id="3/4" x="480.00" y="630.00" type="priority"/>
    <node id="3/5" x="480.00" y="780.00" type="priority"/>
    <node id="3/6" x="480.00" y="930.00" type="priority"/>
    <node id="3/7" x="480.00" y="1080.00" type="priority"/>
    <node id="3/8" x="480.00" y="1230.00" type="priority"/>
    <node id="3/9" x="480.00" y="1380.00" type="priority"/>
    <node id="4/0" x="630.00" y="30.00" type="priority"/>
    <node id="4/1" x="630.00" y="180.00" type="priority"/>
    <node id="4/10" x="630.00" y="1530.00" type="priority"/>
    <node id="4/11" x="630.00" y="1680.00" type="priority"/>
    <node id="4/12" x="630.00" y="1830.00" type="priority"/>
    <node id="4/13" x="630.00" y="1980.00" type="priority"/>
    <node id="4/14" x="630.00" y="2130.00" type="priority"/>
    <node id="4/15" x="630.00" y="2280.00" type="priority"/>
    <node id="4/2" x="630.00" y="330.00" type="priority"/>
    <node id="4/3" x="630.00" y="480.00" type="priority"/>
    <node id="4/4" x="630.00" y="630.00" type="priority"/>
    <node id="4/5" x="630.00" y="780.00" type="priority"/>
    <node id="4/6" x="630.00" y="930.00" type="priority"/>
    <node id="4/7" x="630.00" y="1080.00" type="priority"/>
    <node id="4/8" x="630.00" y="1230.00" type="priority"/>
    <node id="4/9" x="630.00" y="1380.00" type="priority"/>
    <node id="5/0" x="780.00" y="30.00" type="priority"/>
    <node id="5/1" x="780.00" y="180.00" type="priority"/>
    <node id="5/10" x="780.00" y="1530.00" type="priority"/>
    <node id="5/11" x="780.00" y="1680.00" type="priority"/>
    <node id="5/12" x="780.00" y="1830.00" type="priority"/>
    <node id="5/13" x="780.00" y="1980.00" type="priority"/>
    <node id="5/14" x="780.00" y="2130.00" type="priority"/>
    <node id="5/15" x="780.00" y="2280.00" type="priority"/>
    <node id="5/2" x="780.00" y="330.00" type="priority"/>
    <node id="5/3" x="780.00" y="480.00" type="priority"/>
    <node id="5/4" x="780.00" y="630.00" type="priority"/>
    <node id="5/5" x="780.00" y="780.00" type="priority"/>
    <node id="5/6" x="780.00" y="930.00" type="priority"/>
    <node id="5/7" x="780.00" y="1080.00" type="priority"/>
    <node id="5/8" x="780.00" y="1230.00" type="priority"/>
    <node id="5/9" x="780.00" y="1380.00" type="priority"/>
    <node id="6/0" x="930.00" y="30.00" type="priority"/>
    <node id="6/1" x="930.00" y="180.00" type="priority"/>
    <node id="6/10" x="930.00" y="1530.00" type="priority"/>
    <node id="6/11" x="930.00" y="1680.00" type="priority"/>
    <node id="6/12" x="930.00" y="1830.00" type="priority"/>
    <node id="6/13" x="930.00" y="1980.00" type="priority"/>
    <node id="6/14" x="930.00" y="2130.00" type="priority"/>
    <node id="6/15" x="930.00" y="2280.00" type="priority"/>
    <node id="6/2" x="930.00" y="330.00" type="priority"/>
    <node id="6/3" x="930.00" y="480.00" type="priority"/>
    <node id="6/4" x="930.00" y="630.00" type="priority"/>
    <node id="6/5" x="930.00" y="780.00" type="priority"/>
    <node id="6/6" x="930.00" y="930.00" type="priority"/>
    <node id="6/7" x="930.00" y="1080.00" type="priority"/>
    <node id="6/8" x="930.00" y="1230.00" type="priority"/>
    <node id="6/9" x="930.00" y="1380.00" type="priority"/>
    <node id="7/0" x="1080.00" y="30.00" type="priority"/>
    <node id="7/1" x="1080.00" y="180.00" type="priority"/>
    <node id="7/10" x="1080.00" y="1530.00" type="priority"/>
    <node id="7/11" x="1080.00" y="1680.00" type="priority"/>
    <node id="7/12" x="1080.00" y="1830.00" type="priority"/>
    <node id="7/13" x="1080.00" y="1980.00" type="priority"/>
    <node id="7/14" x="1080.00" y="2130.00" type="priority"/>
    <node id="7/15" x="1080.00" y="2280.00" type="priority"/>
    <node id="7/2" x="1080.00" y="330.00" type="priority"/>
    <node id="7/3" x="1080.00" y="480.00" type="priority"/>
    <node id="7/4" x="1080.00" y="630.00" type="priority"/>
    <node id="7/5" x="1080.00" y="780.00" type="priority"/>
    <node id="7/6" x="1080.00" y="930.00" type="priority"/>
    <node id="7/7" x="1080.00" y="1080.00" type="priority"/>
    <node id="7/8" x="1080.00" y="1230.00" type="priority"/>
    <node id="7/9" x="1080.00" y="1380.00" type="priority"/>
    <node id="8/0" x="1230.00" y="30.00" type="priority"/>
    <node id="8/1" x="1230.00" y="180.00" type="priority"/>
    <node id="8/10" x="1230.00" y="1530.00" type="priority"/>
    <node id="8/11" x="1230.00" y="1680.00" type="priority"/>
    <node id="8/12" x="1230.00" y="1830.00" type="priority"/>
    <node id="8/13" x="1230.00" y="1980.00" type="priority"/>
    <node id="8/14" x="1230.00" y="2130.00" type="priority"/>
    <node id="8/15" x="1230.00" y="2280.00" type="priority"/>
    <node id="8/2" x="1230.00" y="330.00" type="priority"/>
    <node id="8/3" x="1230.00" y="480.00" type="priority"/>
    <node id="8/4" x="1230.00" y="630.00" type="priority"/>
    <node id="8/5" x="1230.00" y="780.00" type="priority"/>
    <node id="8/6" x="1230.00" y="930.00" type="priority"/>
    <node id="8/7" x="1230.00" y="1080.00" type="priority"/>
    <node id="8/8" x="1230.00" y="1230.00" type="priority"/>
    <node id="8/9" x="1230.00" y="1380.00" type="priority"/>
    <node id="9/0" x="1380.00" y="30.00" type="priority"/>
    <node id="9/1" x="1380.00" y="180.00" type="priority"/>
    <node id="9/10" x="1380.00" y="1530.00" type="priority"/>
    <node id="9/11" x="1380.00" y="1680.00" type="priority"/>
    <node id="9/12" x="1380.00" y="1830.00" type="priority"/>
    <node id="9/13" x="1380.00" y="1980.00" type="priority"/>
    <node id="9/14" x="1380.00" y="2130.00" type="priority"/>
    <node id="9/15" x="1380.00" y="2280.00" type="priority"/>
    <node id="9/2" x="1380.00" y="330.00" type="priority"/>
    <node id="9/3" x="1380.00" y="480.00" type="priority"/>
    <node id="9/4" x="1380.00" y="630.00" type="priority"/>
    <node id="9/5" x="1380.00" y="780.00" type="priority"/>
    <node id="9/6" x="1380.00" y="930.00" type="priority"/>
    <node id="9/7" x="1380.00" y="1080.00" type="priority"/>
    <node id="9/8" x="1380.00" y="1230.00" type="priority"/>
    <node id="9/9" x="1380.00" y="1380.00" type="priority"/>
    <node id="bottom0" x="30.00" y="0.00" type="priority"/>
    <node id="bottom1" x="180.00" y="0.00" type="priority"/>
    <node id="bottom10" x="1530.00" y="0.00" type="priority"/>
    <node id="bottom11" x="1680.00" y="0.00" type="priority"/>
    <node id="bottom12" x="1830.00" y="0.00" type="priority"/>
    <node id="bottom13" x="1980.00" y="0.00" type="priority"/>
    <node id="bottom14" x="2130.00" y="0.00" type="priority"/>
    <node id="bottom15" x="2280.00" y="0.00" type="priority"/>
    <node id="bottom2" x="330.00" y="0.00" type="priority"/>
    <node id="bottom3" x="480.00" y="0.00" type="priority"/>
    <node id="bottom4" x="630.00" y="0.00" type="priority"/>
    <node id="bottom5" x="780.00" y="0.00" type="priority"/>
    <node id="bottom6" x="930.00" y="0.00" type="priority"/>
    <node id="bottom7" x="1080.00" y="0.00" type="priority"/>
    <node id="bottom8" x="1230.00" y="0.00" type="priority"/>
    <node id="bottom9" x="1380.00" y="0.00" type="priority"/>
    <node id="left0" x="0.00" y="30.00" type="priority"/>
    <node id="left1" x="0.00" y="180.00" type="priority"/>
    <node id="left10" x="0.00" y="1530.00" type="priority"/>
    <node id="left11" x="0.00" y="1680.00" type="priority"/>
    <node id="left12" x="0.00" y="1830.00" type="priority"/>
    <node id="left13" x="0.00" y="1980.00" type="priority"/>
    <node id="left14" x="0.00" y="2130.00" type="priority"/>
    <node id="left15" x="0.00" y="2280.00" type="priority"/>
    <node id="left2" x="0.00" y="330.00" type="priority"/>
    <node id="left3" x="0.00" y="480.00" type="priority"/>
    <node id="left4" x="0.00" y="630.00" type="priority"/>
    <node id="left5" x="0.00" y="780.00" type="priority"/>
    <node id="left6" x="0.00" y="930.00" type="priority"/>
    <node id="left7" x="0.00" y="1080.00" type="priority"/>
    <node id="left8" x="0.00" y="1230.00" type="priority"/>
    <node id="left9" x="0.00" y="1380.00" type="priority"/>
    <node id="right0" x="2310.00" y="30.00" type="priority"/>
    <node id="right1" x="2310.00" y="180.00" type="priority"/>
    <node id="right10" x="2310.00" y="1530.00" type="priority"/>
    <node id="right11" x="2310.00" y="1680.00" type="priority"/>
    <node id="right12" x="2310.00" y="1830.00" type="priority"/>
    <node id="right13" x="2310.00" y="1980.00" type="priority"/>
    <node id="right14" x="2310.00" y="2130.00" type="priority"/>
    <node id="right15" x="2310.00" y="2280.00" type="priority"/>
    <node id="right2" x="2310.00" y="330.00" type="priority"/>
    <node id="right3" x="2310.00" y="480.00" type="priority"/>
    <node id="right4" x="2310.00" y="630.00" type="priority"/>
    <node id="right5" x="2310.00" y="780.00" type="priority"/>
    <node id="right6" x="2310.00" y="930.00" type="priority"/>
    <node id="right7" x="2310.00" y="1080.00" type="priority"/>
    <node id="right8" x="2310.00" y="1230.00" type="priority"/>
    <node id="right9" x="2310.00" y="1380.00" type="priority"/>
    <node id="top0" x="30.00" y="2310.00" type="priority"/>
    <node id="top1" x="180.00" y="2310.00" type="priority"/>
    <node id="top10" x="1530.00" y="2310.00" type="priority"/>
    <node id="top11" x="1680.00" y="2310.00" type="priority"/>
    <node id="top12" x="1830.00" y="2310.00" type="priority"/>
    <node id="top13" x="1980.00" y="2310.00" type="priority"/>
    <node id="top14" x="2130.00" y="2310.00" type="priority"/>
    <node id="top15" x="2280.00" y="2310.00" type="priority"/>
    <node id="top2" x="330.00" y="2310.00" type="priority"/>
    <node id="top3" x="480.00" y="2310.00" type="priority"/>
    <node id="top4" x="630.00" y="2310.00" type="priority"/>
    <node id="top5" x="780.00" y="2310.00" type="priority"/>
    <node id="top6" x="930.00" y="2310.00" type="priority"/>
    <node id="top7" x="1080.00" y="2310.00" type="priority"/>
    <node id="top8" x="1230.00" y="2310.00" type="priority"/>
    <node id="top9" x="1380.00" y="2310.00" type="priority"/>
</nodes>
