<?xml version="1.0" encoding="UTF-8"?>

<!-- generated on Sun Feb  5 11:08:16 2017 by SUMO netconvert Version 0.27.1
<?xml version="1.0" encoding="UTF-8"?>

<configuration xmlns:xsi="http://www.w3.org/2001/XMLSchema-instance" xsi:noNamespaceSchemaLocation="http://sumo.dlr.de/xsd/netconvertConfiguration.xsd">

    <input>
        <type-files value="netconvert.osm.types.xml"/>
        <osm-files value="../osm/madrid_las_tablas.osm"/>
    </input>

    <output>
        <output-file value="madrid_las_tablas.net.xml"/>
        <plain-output-prefix value="madrid_las_tablas"/>
        <output.street-names value="true"/>
        <output.original-names value="true"/>
    </output>

    <projection>
        <proj.utm value="true"/>
        <proj.plain-geo value="true"/>
    </projection>

    <edge_removal>
        <remove-edges.by-type value="highway.bridleway,highway.cycleway,highway.footway,highway.ford,highway.path,highway.pedestrian,highway.service,highway.stairs,highway.step,highway.steps,highway.track,railway.light_rail,railway.preserved,railway.rail,railway.subway,railway.tram"/>
    </edge_removal>

</configuration>
-->

<net version="0.27" xmlns:xsi="http://www.w3.org/2001/XMLSchema-instance" xsi:noNamespaceSchemaLocation="http://sumo.dlr.de/xsd/net_file.xsd">

    <location netOffset="-442262.97,-4482935.93" convBoundary="0.00,0.00,2507.81,2532.27" origBoundary="-3.681621,40.495272,-3.651930,40.517975" projParameter="+proj=utm +zone=30 +ellps=WGS84 +datum=WGS84 +units=m +no_defs"/>

    <type id="highway.bridleway" priority="1" numLanes="1" speed="2.78" allow="pedestrian" oneway="1" width="2.00"/>
    <type id="highway.bus_guideway" priority="1" numLanes="1" speed="8.33" allow="bus" oneway="1"/>
    <type id="highway.cycleway" priority="1" numLanes="1" speed="5.56" allow="bicycle" oneway="0" width="1.00"/>
    <type id="highway.footway" priority="1" numLanes="1" speed="2.78" allow="pedestrian" oneway="1" width="2.00"/>
    <type id="highway.ford" priority="1" numLanes="1" speed="2.78" allow="army" oneway="0"/>
    <type id="highway.living_street" priority="3" numLanes="1" speed="2.78" disallow="tram rail_urban rail rail_electric ship" oneway="0"/>
    <type id="highway.motorway" priority="13" numLanes="2" speed="44.44" allow="private emergency authority army vip passenger hov taxi bus coach delivery truck trailer motorcycle evehicle custom1 custom2" oneway="1"/>
    <type id="highway.motorway_link" priority="12" numLanes="1" speed="22.22" allow="private emergency authority army vip passenger hov taxi bus coach delivery truck trailer motorcycle evehicle custom1 custom2" oneway="1"/>
    <type id="highway.path" priority="1" numLanes="1" speed="2.78" allow="bicycle pedestrian" oneway="1" width="2.00"/>
    <type id="highway.pedestrian" priority="1" numLanes="1" speed="2.78" allow="pedestrian" oneway="1" width="2.00"/>
    <type id="highway.primary" priority="9" numLanes="2" speed="27.78" disallow="tram rail_urban rail rail_electric ship" oneway="0"/>
    <type id="highway.primary_link" priority="8" numLanes="1" speed="22.22" disallow="tram rail_urban rail rail_electric ship" oneway="0"/>
    <type id="highway.raceway" priority="14" numLanes="2" speed="83.33" allow="vip" oneway="0"/>
    <type id="highway.residential" priority="4" numLanes="1" speed="13.89" disallow="tram rail_urban rail rail_electric ship" oneway="0"/>
    <type id="highway.secondary" priority="7" numLanes="2" speed="27.78" disallow="tram rail_urban rail rail_electric ship" oneway="0"/>
    <type id="highway.secondary_link" priority="6" numLanes="1" speed="22.22" disallow="tram rail_urban rail rail_electric ship" oneway="0"/>
    <type id="highway.service" priority="2" numLanes="1" speed="5.56" allow="delivery bicycle pedestrian" oneway="0"/>
    <type id="highway.services" priority="1" numLanes="1" speed="8.33" disallow="tram rail_urban rail rail_electric ship" oneway="0"/>
    <type id="highway.stairs" priority="1" numLanes="1" speed="1.39" allow="pedestrian" oneway="1" width="2.00"/>
    <type id="highway.step" priority="1" numLanes="1" speed="1.39" allow="pedestrian" oneway="1" width="2.00"/>
    <type id="highway.steps" priority="1" numLanes="1" speed="1.39" allow="pedestrian" oneway="1" width="2.00"/>
    <type id="highway.tertiary" priority="6" numLanes="1" speed="22.22" disallow="tram rail_urban rail rail_electric ship" oneway="0"/>
    <type id="highway.tertiary_link" priority="5" numLanes="1" speed="22.22" disallow="tram rail_urban rail rail_electric ship" oneway="0"/>
    <type id="highway.track" priority="1" numLanes="1" speed="5.56" disallow="tram rail_urban rail rail_electric ship" oneway="0"/>
    <type id="highway.trunk" priority="11" numLanes="2" speed="27.78" disallow="tram rail_urban rail rail_electric bicycle pedestrian ship" oneway="0"/>
    <type id="highway.trunk_link" priority="10" numLanes="1" speed="22.22" disallow="tram rail_urban rail rail_electric bicycle pedestrian ship" oneway="0"/>
    <type id="highway.unclassified" priority="5" numLanes="1" speed="13.89" disallow="tram rail_urban rail rail_electric ship" oneway="0"/>
    <type id="highway.unsurfaced" priority="1" numLanes="1" speed="8.33" disallow="tram rail_urban rail rail_electric ship" oneway="0"/>
    <type id="railway.light_rail" priority="15" numLanes="1" speed="27.78" allow="rail_urban" oneway="1"/>
    <type id="railway.preserved" priority="15" numLanes="1" speed="27.78" allow="rail" oneway="1"/>
    <type id="railway.rail" priority="15" numLanes="1" speed="83.33" allow="rail rail_electric" oneway="1"/>
    <type id="railway.subway" priority="15" numLanes="1" speed="27.78" allow="rail_urban" oneway="1"/>
    <type id="railway.tram" priority="15" numLanes="1" speed="13.89" allow="tram" oneway="1"/>

    <edge id=":1046902466_0" function="internal">
        <lane id=":1046902466_0_0" index="0" disallow="tram rail_urban rail rail_electric ship" speed="13.89" length="8.64" shape="1453.38,1533.29 1453.18,1535.84 1453.22,1537.59 1453.32,1539.35 1453.33,1541.92"/>
    </edge>
    <edge id=":1046902466_1" function="internal">
        <lane id=":1046902466_1_0" index="0" disallow="tram rail_urban rail rail_electric ship" speed="13.89" length="2.27" shape="1453.38,1533.29 1452.42,1534.42 1451.69,1534.69"/>
    </edge>
    <edge id=":1046902466_6" function="internal">
        <lane id=":1046902466_6_0" index="0" speed="13.89" length="2.55" shape="1451.69,1534.69 1451.56,1534.74 1450.78,1534.24 1450.10,1532.92"/>
    </edge>
    <edge id=":1046902466_2" function="internal">
        <lane id=":1046902466_2_0" index="0" disallow="tram rail_urban rail rail_electric ship" speed="13.89" length="8.72" shape="1446.33,1540.78 1450.10,1532.92"/>
    </edge>
    <edge id=":1046902466_3" function="internal">
        <lane id=":1046902466_3_0" index="0" disallow="tram rail_urban rail rail_electric ship" speed="13.89" length="15.64" shape="1446.33,1540.78 1449.52,1536.19 1451.75,1534.86 1453.02,1536.77 1453.33,1541.92"/>
    </edge>
    <edge id=":1046902466_4" function="internal">
        <lane id=":1046902466_4_0" index="0" disallow="tram rail_urban rail rail_electric ship" speed="13.89" length="8.92" shape="1450.03,1541.84 1450.10,1532.92"/>
    </edge>
    <edge id=":1046902466_5" function="internal">
        <lane id=":1046902466_5_0" index="0" disallow="tram rail_urban rail rail_electric ship" speed="13.89" length="2.41" shape="1450.03,1541.84 1450.89,1540.62 1451.72,1540.23"/>
    </edge>
    <edge id=":1046902466_7" function="internal">
        <lane id=":1046902466_7_0" index="0" speed="13.89" length="2.41" shape="1451.72,1540.23 1452.54,1540.66 1453.33,1541.92"/>
    </edge>
    <edge id=":1046902489_0" function="internal">
        <lane id=":1046902489_0_0" index="0" disallow="tram rail_urban rail rail_electric ship" speed="13.89" length="17.37" shape="1537.58,1443.38 1520.37,1445.63"/>
    </edge>
    <edge id=":1046902489_1" function="internal">
        <lane id=":1046902489_1_0" index="0" disallow="tram rail_urban rail rail_electric ship" speed="13.89" length="2.41" shape="1537.58,1443.38 1536.25,1442.71 1535.74,1441.95"/>
    </edge>
    <edge id=":1046902489_6" function="internal">
        <lane id=":1046902489_6_0" index="0" speed="13.89" length="2.41" shape="1535.74,1441.95 1536.05,1441.08 1537.17,1440.10"/>
    </edge>
    <edge id=":1046902489_2" function="internal">
        <lane id=":1046902489_2_0" index="0" disallow="tram rail_urban rail rail_electric ship" speed="13.89" length="17.51" shape="1519.71,1438.81 1537.17,1440.10"/>
    </edge>
    <edge id=":1046902489_3" function="internal">
        <lane id=":1046902489_3_0" index="0" disallow="tram rail_urban rail rail_electric ship" speed="13.89" length="29.85" shape="1519.71,1438.81 1530.68,1440.41 1534.45,1442.09 1531.01,1443.83 1520.37,1445.63"/>
    </edge>
    <edge id=":1046902489_4" function="internal">
        <lane id=":1046902489_4_0" index="0" disallow="tram rail_urban rail rail_electric ship" speed="13.89" length="17.37" shape="1519.94,1442.36 1537.17,1440.10"/>
    </edge>
    <edge id=":1046902489_5" function="internal">
        <lane id=":1046902489_5_0" index="0" disallow="tram rail_urban rail rail_electric ship" speed="13.89" length="2.41" shape="1519.94,1442.36 1521.28,1443.02 1521.79,1443.78"/>
    </edge>
    <edge id=":1046902489_7" function="internal">
        <lane id=":1046902489_7_0" index="0" speed="13.89" length="2.41" shape="1521.79,1443.78 1521.49,1444.65 1520.37,1445.63"/>
    </edge>
    <edge id=":1046902497_0" function="internal">
        <lane id=":1046902497_0_0" index="0" disallow="tram rail_urban rail rail_electric ship" speed="13.89" length="6.34" shape="1427.67,1550.12 1426.36,1548.81 1425.21,1548.18 1424.04,1547.56 1422.67,1546.31"/>
    </edge>
    <edge id=":1046902497_1" function="internal">
        <lane id=":1046902497_1_0" index="0" disallow="tram rail_urban rail rail_electric ship" speed="13.89" length="3.48" shape="1427.67,1550.12 1426.12,1547.76 1426.06,1547.10"/>
    </edge>
    <edge id=":1046902497_4" function="internal">
        <lane id=":1046902497_4_0" index="0" speed="13.89" length="4.79" shape="1426.06,1547.10 1425.99,1546.45 1427.28,1546.20 1429.98,1547.00"/>
    </edge>
    <edge id=":1046902497_2" function="internal">
        <lane id=":1046902497_2_0" index="0" disallow="tram rail_urban rail rail_electric ship" speed="13.89" length="5.69" shape="1425.18,1544.16 1426.33,1545.36 1427.29,1546.00 1428.39,1546.43 1429.98,1547.00"/>
    </edge>
    <edge id=":1046902497_3" function="internal">
        <lane id=":1046902497_3_0" index="0" disallow="tram rail_urban rail rail_electric ship" speed="13.89" length="2.20" shape="1425.18,1544.16 1425.36,1545.64 1425.08,1546.30"/>
    </edge>
    <edge id=":1046902497_5" function="internal">
        <lane id=":1046902497_5_0" index="0" speed="13.89" length="2.62" shape="1425.08,1546.30 1425.00,1546.49 1424.10,1546.71 1422.67,1546.31"/>
    </edge>
    <edge id=":1046902626_0" function="internal">
        <lane id=":1046902626_0_0" index="0" disallow="tram rail_urban rail rail_electric ship" speed="13.89" length="16.98" shape="1649.18,1334.37 1645.59,1337.79 1643.30,1340.31 1641.19,1343.00 1638.14,1346.92"/>
        <lane id=":1046902626_0_1" index="1" disallow="tram rail_urban rail rail_electric ship" speed="13.89" length="16.98" shape="1649.18,1334.37 1635.56,1344.87"/>
    </edge>
    <edge id=":1046902626_2" function="internal">
        <lane id=":1046902626_2_0" index="0" disallow="tram rail_urban rail rail_electric ship" speed="13.89" length="15.87" shape="1649.18,1334.37 1644.97,1337.72 1640.97,1339.89 1637.17,1340.88 1633.58,1340.69"/>
        <lane id=":1046902626_2_1" index="1" disallow="tram rail_urban rail rail_electric ship" speed="13.89" length="15.87" shape="1646.96,1331.94 1643.34,1334.79 1639.83,1336.62 1636.44,1337.43 1633.17,1337.21"/>
        <lane id=":1046902626_2_2" index="2" disallow="tram rail_urban rail rail_electric ship" speed="13.89" length="15.87" shape="1646.96,1331.94 1644.42,1333.55 1641.21,1334.39 1637.33,1334.45 1632.77,1333.74"/>
    </edge>
    <edge id=":1046902641_0" function="internal">
        <lane id=":1046902641_0_0" index="0" disallow="tram rail_urban rail rail_electric ship" speed="13.89" length="0.10" shape="893.32,2101.23 893.32,2101.23"/>
    </edge>
    <edge id=":1046902645_0" function="internal">
        <lane id=":1046902645_0_0" index="0" disallow="tram rail_urban rail rail_electric ship" speed="13.89" length="6.13" shape="1468.46,1423.16 1469.88,1423.87 1471.15,1423.54 1472.53,1423.04 1474.28,1423.25"/>
    </edge>
    <edge id=":1046902645_1" function="internal">
        <lane id=":1046902645_1_0" index="0" disallow="tram rail_urban rail rail_electric ship" speed="13.89" length="5.01" shape="1468.46,1423.16 1472.33,1426.34"/>
    </edge>
    <edge id=":1046902743_0" function="internal">
        <lane id=":1046902743_0_0" index="0" disallow="tram rail_urban rail rail_electric ship" speed="13.89" length="8.08" shape="851.88,2170.37 851.17,2162.33"/>
    </edge>
    <edge id=":1046902743_1" function="internal">
        <lane id=":1046902743_1_0" index="0" disallow="tram rail_urban rail rail_electric ship" speed="13.89" length="2.41" shape="851.88,2170.37 852.65,2169.10 853.45,2168.65"/>
    </edge>
    <edge id=":1046902743_6" function="internal">
        <lane id=":1046902743_6_0" index="0" speed="13.89" length="2.41" shape="853.45,2168.65 854.29,2169.02 855.18,2170.22"/>
    </edge>
    <edge id=":1046902743_2" function="internal">
        <lane id=":1046902743_2_0" index="0" disallow="tram rail_urban rail rail_electric ship" speed="13.89" length="8.15" shape="858.33,2162.97 856.94,2164.97 855.91,2166.38 855.30,2167.89 855.18,2170.22"/>
    </edge>
    <edge id=":1046902743_3" function="internal">
        <lane id=":1046902743_3_0" index="0" disallow="tram rail_urban rail rail_electric ship" speed="13.89" length="13.30" shape="858.33,2162.97 855.55,2166.72 853.42,2167.86 851.97,2166.40 851.17,2162.33"/>
    </edge>
    <edge id=":1046902743_4" function="internal">
        <lane id=":1046902743_4_0" index="0" disallow="tram rail_urban rail rail_electric ship" speed="13.89" length="8.21" shape="854.46,2162.05 855.18,2170.22"/>
    </edge>
    <edge id=":1046902743_5" function="internal">
        <lane id=":1046902743_5_0" index="0" disallow="tram rail_urban rail rail_electric ship" speed="13.89" length="2.41" shape="854.46,2162.05 853.75,2163.35 852.96,2163.83"/>
    </edge>
    <edge id=":1046902743_7" function="internal">
        <lane id=":1046902743_7_0" index="0" speed="13.89" length="2.41" shape="852.96,2163.83 852.10,2163.49 851.17,2162.33"/>
    </edge>
    <edge id=":1046902958_0" function="internal">
        <lane id=":1046902958_0_0" index="0" allow="private emergency authority army vip passenger hov taxi bus coach delivery truck trailer motorcycle evehicle custom1 custom2" speed="22.22" length="2.05" shape="1867.18,918.33 1865.22,918.19"/>
        <lane id=":1046902958_0_1" index="1" allow="private emergency authority army vip passenger hov taxi bus coach delivery truck trailer motorcycle evehicle custom1 custom2" speed="22.22" length="2.05" shape="1867.18,918.33 1867.94,916.33"/>
    </edge>
    <edge id=":1046903014_0" function="internal">
        <lane id=":1046903014_0_0" index="0" disallow="tram rail_urban rail rail_electric ship" speed="13.89" length="0.10" shape="460.41,1728.72 460.41,1728.71"/>
    </edge>
    <edge id=":1046903019_0" function="internal">
        <lane id=":1046903019_0_0" index="0" disallow="tram rail_urban rail rail_electric ship" speed="13.89" length="16.54" shape="913.49,2065.14 911.16,2068.35 909.08,2072.08 907.18,2075.94 905.39,2079.52"/>
    </edge>
    <edge id=":1046903019_1" function="internal">
        <lane id=":1046903019_1_0" index="0" disallow="tram rail_urban rail rail_electric ship" speed="13.89" length="16.52" shape="913.49,2065.14 902.23,2077.23"/>
    </edge>
    <edge id=":1046903019_2" function="internal">
        <lane id=":1046903019_2_0" index="0" disallow="tram rail_urban rail rail_electric ship" speed="13.89" length="2.41" shape="913.49,2065.14 912.05,2065.53 911.16,2065.29"/>
    </edge>
    <edge id=":1046903019_6" function="internal">
        <lane id=":1046903019_6_0" index="0" speed="13.89" length="2.41" shape="911.16,2065.29 910.81,2064.43 911.01,2062.96"/>
    </edge>
    <edge id=":1046903019_3" function="internal">
        <lane id=":1046903019_3_0" index="0" disallow="tram rail_urban rail rail_electric ship" speed="13.89" length="16.55" shape="899.70,2074.99 902.72,2072.41 905.64,2069.29 908.42,2066.01 911.01,2062.96"/>
    </edge>
    <edge id=":1046903019_4" function="internal">
        <lane id=":1046903019_4_0" index="0" disallow="tram rail_urban rail rail_electric ship" speed="13.89" length="6.40" shape="899.70,2074.99 904.97,2071.75 905.18,2071.72"/>
    </edge>
    <edge id=":1046903019_5" function="internal">
        <lane id=":1046903019_5_0" index="0" disallow="tram rail_urban rail rail_electric ship" speed="13.89" length="2.62" shape="899.70,2074.99 901.17,2074.60 902.09,2074.84 902.14,2074.98"/>
    </edge>
    <edge id=":1046903019_7" function="internal">
        <lane id=":1046903019_7_0" index="0" speed="13.89" length="11.13" shape="905.18,2071.72 907.68,2071.42 907.81,2074.02 905.39,2079.52"/>
    </edge>
    <edge id=":1046903019_8" function="internal">
        <lane id=":1046903019_8_0" index="0" speed="13.89" length="2.32" shape="902.14,2074.98 902.44,2075.72 902.23,2077.23"/>
    </edge>
    <edge id=":1046903085_0" function="internal">
        <lane id=":1046903085_0_0" index="0" disallow="tram rail_urban rail rail_electric ship" speed="13.89" length="11.70" shape="890.91,2105.55 885.22,2115.77"/>
    </edge>
    <edge id=":1046903085_1" function="internal">
        <lane id=":1046903085_1_0" index="0" disallow="tram rail_urban rail rail_electric ship" speed="13.89" length="11.71" shape="890.91,2105.55 889.10,2108.17 887.18,2109.92 885.00,2111.44 882.38,2113.39"/>
    </edge>
    <edge id=":1046903138_0" function="internal">
        <lane id=":1046903138_0_0" index="0" disallow="tram rail_urban rail rail_electric ship" speed="13.89" length="5.38" shape="1666.40,1321.56 1664.95,1322.06 1663.83,1322.12 1662.77,1322.29 1661.53,1323.08"/>
        <lane id=":1046903138_0_1" index="1" disallow="tram rail_urban rail rail_electric ship" speed="13.89" length="5.38" shape="1664.47,1318.85 1662.93,1319.41 1661.74,1319.53 1660.62,1319.77 1659.31,1320.65"/>
    </edge>
    <edge id=":1046903138_2" function="internal">
        <lane id=":1046903138_2_0" index="0" disallow="tram rail_urban rail rail_electric ship" speed="13.89" length="7.38" shape="1660.30,1315.97 1660.65,1317.41 1661.24,1319.65 1661.67,1321.83 1661.53,1323.08"/>
        <lane id=":1046903138_2_1" index="1" disallow="tram rail_urban rail rail_electric ship" speed="13.89" length="7.38" shape="1656.78,1314.39 1657.30,1317.66 1657.90,1319.79 1658.57,1320.79 1659.31,1320.65"/>
    </edge>
    <edge id=":1046903220_0" function="internal">
        <lane id=":1046903220_0_0" index="0" disallow="tram rail_urban rail rail_electric ship" speed="13.89" length="5.00" shape="1449.69,1585.94 1448.44,1590.79"/>
    </edge>
    <edge id=":1046903220_1" function="internal">
        <lane id=":1046903220_1_0" index="0" disallow="tram rail_urban rail rail_electric ship" speed="13.89" length="3.94" shape="1449.69,1585.94 1449.00,1587.64 1448.30,1587.36 1447.90,1586.07"/>
    </edge>
    <edge id=":1046903220_2" function="internal">
        <lane id=":1046903220_2_0" index="0" disallow="tram rail_urban rail rail_electric ship" speed="13.89" length="1.71" shape="1449.69,1585.94 1448.02,1585.59"/>
    </edge>
    <edge id=":1046903220_6" function="internal">
        <lane id=":1046903220_6_0" index="0" speed="13.89" length="5.31" shape="1447.90,1586.07 1447.60,1585.10 1446.89,1580.86"/>
    </edge>
    <edge id=":1046903220_7" function="internal">
        <lane id=":1046903220_7_0" index="0" speed="13.89" length="6.44" shape="1448.02,1585.59 1447.23,1585.43 1446.06,1584.39 1446.19,1582.84 1447.61,1580.77"/>
    </edge>
    <edge id=":1046903220_3" function="internal">
        <lane id=":1046903220_3_0" index="0" disallow="tram rail_urban rail rail_electric ship" speed="13.89" length="9.24" shape="1445.25,1589.96 1446.89,1580.86"/>
    </edge>
    <edge id=":1046903220_4" function="internal">
        <lane id=":1046903220_4_0" index="0" disallow="tram rail_urban rail rail_electric ship" speed="13.89" length="9.49" shape="1445.25,1589.96 1447.61,1580.77"/>
    </edge>
    <edge id=":1046903220_5" function="internal">
        <lane id=":1046903220_5_0" index="0" disallow="tram rail_urban rail rail_electric ship" speed="13.89" length="2.41" shape="1445.25,1589.96 1446.35,1588.97 1447.26,1588.78"/>
    </edge>
    <edge id=":1046903220_8" function="internal">
        <lane id=":1046903220_8_0" index="0" speed="13.89" length="2.41" shape="1447.26,1588.78 1447.95,1589.38 1448.44,1590.79"/>
    </edge>
    <edge id=":1121592048_0" function="internal">
        <lane id=":1121592048_0_0" index="0" allow="private emergency authority army vip passenger hov taxi bus coach delivery truck trailer motorcycle evehicle custom1 custom2" speed="19.44" length="0.10" shape="1286.73,143.48 1286.73,143.48"/>
    </edge>
    <edge id=":1163944655_0" function="internal">
        <lane id=":1163944655_0_0" index="0" allow="private emergency authority army vip passenger hov taxi bus coach delivery truck trailer motorcycle evehicle custom1 custom2" speed="22.22" length="3.14" shape="1389.05,1853.12 1386.01,1853.88"/>
    </edge>
    <edge id=":1163944857_0" function="internal">
        <lane id=":1163944857_0_0" index="0" disallow="tram rail_urban rail rail_electric ship" speed="13.89" length="0.91" shape="1676.04,393.25 1675.97,393.14 1675.92,393.06 1675.86,393.00 1675.76,392.90"/>
        <lane id=":1163944857_0_1" index="1" disallow="tram rail_urban rail rail_electric ship" speed="13.89" length="0.91" shape="1678.89,391.59 1678.68,391.24 1678.52,391.01 1678.34,390.80 1678.05,390.52"/>
    </edge>
    <edge id=":1163944877_0" function="internal">
        <lane id=":1163944877_0_0" index="0" disallow="tram rail_urban rail rail_electric ship" speed="18.05" length="5.22" shape="1550.74,842.00 1550.27,843.07 1549.34,843.08 1547.96,842.02 1546.13,839.91"/>
        <lane id=":1163944877_0_1" index="1" disallow="tram rail_urban rail rail_electric ship" speed="18.05" length="5.22" shape="1550.74,842.00 1550.72,841.30 1550.47,840.50 1549.99,839.59 1549.27,838.58"/>
    </edge>
    <edge id=":1163944877_2" function="internal">
        <lane id=":1163944877_2_0" index="0" disallow="tram rail_urban rail rail_electric ship" speed="22.22" length="3.96" shape="1550.74,842.00 1551.25,840.62 1552.11,839.93 1553.19,839.33 1554.34,838.20"/>
        <lane id=":1163944877_2_1" index="1" disallow="tram rail_urban rail rail_electric ship" speed="22.22" length="3.96" shape="1554.00,842.50 1554.49,841.36 1555.34,840.89 1556.37,840.49 1557.41,839.58"/>
        <lane id=":1163944877_2_2" index="2" disallow="tram rail_urban rail rail_electric ship" speed="22.22" length="3.96" shape="1557.26,842.99 1557.68,842.27 1558.42,842.14 1559.29,842.06 1560.10,841.50"/>
        <lane id=":1163944877_2_3" index="3" disallow="tram rail_urban rail rail_electric ship" speed="22.22" length="3.96" shape="1560.53,843.48 1562.78,843.41"/>
    </edge>
    <edge id=":1163944955_0" function="internal">
        <lane id=":1163944955_0_0" index="0" allow="private emergency authority army vip passenger hov taxi bus coach delivery truck trailer motorcycle evehicle custom1 custom2" speed="16.67" length="0.10" shape="1863.54,761.14 1863.54,761.14"/>
        <lane id=":1163944955_0_1" index="1" allow="private emergency authority army vip passenger hov taxi bus coach delivery truck trailer motorcycle evehicle custom1 custom2" speed="16.67" length="0.10" shape="1860.79,762.97 1860.79,762.97"/>
        <lane id=":1163944955_0_2" index="2" allow="private emergency authority army vip passenger hov taxi bus coach delivery truck trailer motorcycle evehicle custom1 custom2" speed="16.67" length="0.10" shape="1858.06,764.82 1858.05,764.80"/>
    </edge>
    <edge id=":1163945218_0" function="internal">
        <lane id=":1163945218_0_0" index="0" allow="private emergency authority army vip passenger hov taxi bus coach delivery truck trailer motorcycle evehicle custom1 custom2" speed="16.67" length="3.00" shape="1888.01,797.78 1889.68,800.27"/>
        <lane id=":1163945218_0_1" index="1" allow="private emergency authority army vip passenger hov taxi bus coach delivery truck trailer motorcycle evehicle custom1 custom2" speed="16.67" length="3.00" shape="1885.26,799.61 1886.93,802.11"/>
        <lane id=":1163945218_0_2" index="2" allow="private emergency authority army vip passenger hov taxi bus coach delivery truck trailer motorcycle evehicle custom1 custom2" speed="16.67" length="3.00" shape="1882.52,801.44 1884.19,803.94"/>
    </edge>
    <edge id=":1163945218_3" function="internal">
        <lane id=":1163945218_3_0" index="0" allow="private emergency authority army vip passenger hov taxi bus coach delivery truck trailer motorcycle evehicle custom1 custom2" speed="19.44" length="3.67" shape="1885.13,799.70 1886.93,802.11"/>
        <lane id=":1163945218_3_1" index="1" allow="private emergency authority army vip passenger hov taxi bus coach delivery truck trailer motorcycle evehicle custom1 custom2" speed="19.44" length="3.67" shape="1885.13,799.70 1884.19,803.94"/>
    </edge>
    <edge id=":1163945436_0" function="internal">
        <lane id=":1163945436_0_0" index="0" disallow="tram rail_urban rail rail_electric ship" speed="13.89" length="1.28" shape="1544.05,837.25 1544.60,836.09"/>
    </edge>
    <edge id=":1163945436_1" function="internal">
        <lane id=":1163945436_1_0" index="0" disallow="tram rail_urban rail rail_electric ship" speed="13.89" length="5.85" shape="1549.06,838.31 1548.17,836.79 1548.14,835.63 1548.98,834.82 1550.68,834.36"/>
    </edge>
    <edge id=":1163945436_2" function="internal">
        <lane id=":1163945436_2_0" index="0" disallow="tram rail_urban rail rail_electric ship" speed="13.89" length="5.01" shape="1546.03,833.12 1547.25,833.27 1548.06,832.60 1548.91,831.68 1550.26,831.09"/>
    </edge>
    <edge id=":1163945436_3" function="internal">
        <lane id=":1163945436_3_0" index="0" disallow="tram rail_urban rail rail_electric ship" speed="13.89" length="2.41" shape="1546.03,833.12 1546.79,834.39 1546.80,835.32"/>
    </edge>
    <edge id=":1163945436_4" function="internal">
        <lane id=":1163945436_4_0" index="0" speed="13.89" length="2.41" shape="1546.80,835.32 1546.07,835.88 1544.60,836.09"/>
    </edge>
    <edge id=":1163945557_0" function="internal">
        <lane id=":1163945557_0_0" index="0" allow="private emergency authority army vip passenger hov taxi bus coach delivery truck trailer motorcycle evehicle custom1 custom2" speed="22.22" length="0.10" shape="1323.58,1922.72 1323.58,1922.72"/>
    </edge>
    <edge id=":1163945645_0" function="internal">
        <lane id=":1163945645_0_0" index="0" disallow="tram rail_urban rail rail_electric ship" speed="13.89" length="0.68" shape="1719.37,429.84 1719.29,429.78 1719.23,429.74 1719.17,429.71 1719.08,429.67"/>
        <lane id=":1163945645_0_1" index="1" disallow="tram rail_urban rail rail_electric ship" speed="13.89" length="0.68" shape="1721.38,427.23 1721.14,427.04 1720.97,426.93 1720.78,426.83 1720.51,426.69"/>
    </edge>
    <edge id=":1163945649_0" function="internal">
        <lane id=":1163945649_0_0" index="0" allow="private emergency authority army vip passenger hov taxi bus coach delivery truck trailer motorcycle evehicle custom1 custom2" speed="19.44" length="0.10" shape="1700.21,665.60 1700.21,665.60"/>
    </edge>
    <edge id=":1168639710_0" function="internal">
        <lane id=":1168639710_0_0" index="0" allow="private emergency authority army vip passenger hov taxi bus coach delivery truck trailer motorcycle evehicle custom1 custom2" speed="22.22" length="0.10" shape="1236.93,1836.76 1236.93,1836.76"/>
    </edge>
    <edge id=":1168640513_0" function="internal">
        <lane id=":1168640513_0_0" index="0" disallow="tram rail_urban rail rail_electric ship" speed="13.89" length="0.62" shape="2102.14,1033.15 2101.78,1032.66"/>
    </edge>
    <edge id=":1168640513_1" function="internal">
        <lane id=":1168640513_1_0" index="0" disallow="tram rail_urban rail rail_electric ship" speed="13.89" length="2.41" shape="2102.14,1033.15 2101.98,1031.68 2102.35,1030.83"/>
    </edge>
    <edge id=":1168640513_4" function="internal">
        <lane id=":1168640513_4_0" index="0" speed="13.89" length="2.41" shape="2102.35,1030.83 2103.25,1030.62 2104.68,1031.05"/>
    </edge>
    <edge id=":1168640513_2" function="internal">
        <lane id=":1168640513_2_0" index="0" disallow="tram rail_urban rail rail_electric ship" speed="13.89" length="0.20" shape="2104.56,1030.88 2104.68,1031.05"/>
    </edge>
    <edge id=":1168640513_3" function="internal">
        <lane id=":1168640513_3_0" index="0" disallow="tram rail_urban rail rail_electric ship" speed="13.89" length="2.41" shape="2104.56,1030.88 2104.53,1032.37 2104.05,1033.16"/>
    </edge>
    <edge id=":1168640513_5" function="internal">
        <lane id=":1168640513_5_0" index="0" speed="13.89" length="2.41" shape="2104.05,1033.16 2103.14,1033.26 2101.78,1032.66"/>
    </edge>
    <edge id=":1168640993_0" function="internal">
        <lane id=":1168640993_0_0" index="0" disallow="tram rail_urban rail rail_electric ship" speed="13.89" length="8.07" shape="2117.04,918.56 2111.37,924.30"/>
    </edge>
    <edge id=":1168640993_1" function="internal">