<?xml version="1.0" encoding="UTF-8"?>

<configuration xmlns:xsi="http://www.w3.org/2001/XMLSchema-instance" xsi:noNamespaceSchemaLocation="http://sumo.dlr.de/xsd/duarouterConfiguration.xsd">

    <input>
        <net-file value="radial16_XS_Bastra_rand2x2_time2000_fulltraffic_logit20.net.xml"/>
        <trip-files value="radial16_XS_Bastra_rand2x2_time2000_fulltraffic_logit20.trip.xml"/>
    </input>

    <output>
        <output-file value="radial16_XS_Bastra_rand2x2_time2000_fulltraffic_logit20.routes.xml"/>
    </output>

    <processing>
        <remove-loops value="true"/>
    </processing>

    <time>
        <begin value="0"/>
        <end value="1000"/>
    </time>

</configuration>
