<?xml version="1.0" encoding="UTF-8"?>

<!-- generated on Thu Dec 22 12:57:50 2016 by SUMO netconvert Version 0.27.1
<?xml version="1.0" encoding="UTF-8"?>

<configuration xmlns:xsi="http://www.w3.org/2001/XMLSchema-instance" xsi:noNamespaceSchemaLocation="http://sumo.dlr.de/xsd/netconvertConfiguration.xsd">

    <input>
        <type-files value="netconvert.osm.types.xml"/>
        <osm-files value="../osm/alcalahenares.osm"/>
    </input>

    <output>
        <output-file value="alcalahenares.net.xml"/>
        <plain-output-prefix value="alcalahenares"/>
        <output.street-names value="true"/>
        <output.original-names value="true"/>
    </output>

    <projection>
        <proj.utm value="true"/>
        <proj.plain-geo value="true"/>
    </projection>

    <edge_removal>
        <remove-edges.by-type value="highway.bridleway,highway.cycleway,highway.footway,highway.ford,highway.path,highway.pedestrian,highway.service,highway.stairs,highway.step,highway.steps,highway.track,railway.light_rail,railway.preserved,railway.rail,railway.subway,railway.tram"/>
    </edge_removal>

</configuration>
-->

<edges version="0.27" xmlns:xsi="http://www.w3.org/2001/XMLSchema-instance" xsi:noNamespaceSchemaLocation="http://sumo.dlr.de/xsd/edges_file.xsd">
    <edge id="-100851682" from="1165482312" to="1165482328" name="Avenida de Madrid" priority="9" type="highway.primary" numLanes="1" speed="27.78" shape="-3.394803,40.476015 -3.394245,40.476180 -3.393535,40.476372" disallow="tram rail_urban rail rail_electric ship"/>
    <edge id="-100851688" from="1165482328" to="1165482290" name="Avenida de Madrid" priority="9" type="highway.primary" numLanes="1" speed="27.78" disallow="tram rail_urban rail rail_electric ship"/>
    <edge id="-100851690" from="1165482325" to="1165482312" name="Avenida de Madrid" priority="9" type="highway.primary" numLanes="1" speed="27.78" disallow="tram rail_urban rail rail_electric ship"/>
    <edge id="-100851695" from="1165482322" to="1165482272" priority="5" type="highway.unclassified" numLanes="1" speed="13.89" shape="-3.405725,40.468375 -3.401943,40.469521 -3.401857,40.469638" disallow="tram rail_urban rail rail_electric ship"/>
    <edge id="-103584157" from="311472409" to="1195985289" name="Calle de Fausto Elhuyar" priority="4" type="highway.residential" numLanes="1" speed="13.89" shape="-3.396309,40.484626 -3.396626,40.485044 -3.396721,40.485168" disallow="tram rail_urban rail rail_electric ship"/>
    <edge id="-103584164" from="1195985748" to="1195985652" name="Calle de José Trueta" priority="4" type="highway.residential" numLanes="1" speed="13.89" disallow="tram rail_urban rail rail_electric ship"/>
    <edge id="-103584211#0" from="311472492" to="1195985503" name="Calle de Fausto Elhuyar" priority="4" type="highway.residential" numLanes="1" speed="13.89" disallow="tram rail_urban rail rail_electric ship"/>
    <edge id="-103584211#1" from="1195985434" to="311472492" name="Calle de Fausto Elhuyar" priority="4" type="highway.residential" numLanes="1" speed="13.89" disallow="tram rail_urban rail rail_electric ship"/>
    <edge id="-103584211#2" from="311472507" to="1195985434" name="Calle de Fausto Elhuyar" priority="4" type="highway.residential" numLanes="1" speed="13.89" disallow="tram rail_urban rail rail_electric ship"/>
    <edge id="-103584211#3" from="311472515" to="311472507" name="Calle de Fausto Elhuyar" priority="4" type="highway.residential" numLanes="1" speed="13.89" disallow="tram rail_urban rail rail_electric ship"/>
    <edge id="-103584211#4" from="1195985321" to="311472515" name="Calle de Fausto Elhuyar" priority="4" type="highway.residential" numLanes="1" speed="13.89" disallow="tram rail_urban rail rail_electric ship"/>
    <edge id="-103584211#5" from="259133913" to="1195985321" name="Calle de Fausto Elhuyar" priority="4" type="highway.residential" numLanes="1" speed="13.89" disallow="tram rail_urban rail rail_electric ship"/>
    <edge id="-103584239" from="1195985378" to="1195985765" name="Calle de Antonio Palacios" priority="4" type="highway.residential" numLanes="1" speed="13.89" disallow="tram rail_urban rail rail_electric ship"/>
    <edge id="-106134323" from="259253756" to="1222027143" name="Avenida Camarmilla" priority="6" type="highway.tertiary" numLanes="1" speed="11.11" disallow="tram rail_urban rail rail_electric ship"/>
    <edge id="-106134328" from="1222027487" to="259133885" priority="6" type="highway.tertiary" numLanes="1" speed="22.22" disallow="tram rail_urban rail rail_electric ship"/>
    <edge id="-106134330#0" from="370533487" to="259253756" name="Avenida Camarmilla" priority="6" type="highway.tertiary" numLanes="1" speed="11.11" shape="-3.382324,40.487962 -3.382126,40.487815 -3.381551,40.487358 -3.380916,40.486901 -3.380455,40.486638" disallow="tram rail_urban rail rail_electric ship"/>
    <edge id="-106134330#1" from="886712383" to="370533487" name="Avenida Camarmilla" priority="6" type="highway.tertiary" numLanes="1" speed="11.11" disallow="tram rail_urban rail rail_electric ship"/>
    <edge id="-106134332#0" from="1376907087" to="637775621" name="Calle Alfonso XI" priority="4" type="highway.residential" numLanes="1" speed="13.89" disallow="tram rail_urban rail rail_electric ship"/>
    <edge id="-106134332#1" from="1222027099" to="1376907087" name="Calle Alfonso XI" priority="4" type="highway.residential" numLanes="1" speed="13.89" disallow="tram rail_urban rail rail_electric ship"/>
    <edge id="-106134332#2" from="1222026627" to="1222027099" name="Calle Alfonso XI" priority="4" type="highway.residential" numLanes="1" speed="13.89" shape="-3.363738,40.514338 -3.363443,40.514372 -3.362992,40.514399 -3.362355,40.514424 -3.361860,40.514411" disallow="tram rail_urban rail rail_electric ship"/>
    <edge id="-106134336" from="259133885" to="370533589" priority="6" type="highway.tertiary" numLanes="1" speed="22.22" shape="-3.378850,40.489346 -3.379286,40.489435 -3.380067,40.489749 -3.380370,40.489871" disallow="tram rail_urban rail rail_electric ship"/>
    <edge id="-106134345#0" from="1376906721" to="1060334880" priority="4" type="highway.residential" numLanes="1" speed="13.89" shape="-3.361499,40.514495 -3.361456,40.514589 -3.361417,40.514626 -3.359633,40.514875" disallow="tram rail_urban rail rail_electric ship"/>
    <edge id="-106134345#1" from="2027136248" to="1376906721" priority="4" type="highway.residential" numLanes="1" speed="13.89" disallow="tram rail_urban rail rail_electric ship"/>
    <edge id="-106134345#2" from="637775621" to="2027136248" priority="4" type="highway.residential" numLanes="1" speed="13.89" disallow="tram rail_urban rail rail_electric ship"/>
    <edge id="-106134346" from="1222027483" to="886635730" name="Calle Chorrillo" priority="4" type="highway.residential" numLanes="1" speed="13.89" shape="-3.383655,40.483924 -3.383587,40.483719 -3.383546,40.483650 -3.383505,40.483621 -3.383406,40.483627 -3.383246,40.483678 -3.382871,40.483836 -3.382194,40.484060 -3.381325,40.484392 -3.379274,40.485070 -3.378630,40.485286 -3.378472,40.485373" disallow="tram rail_urban rail rail_electric ship"/>
    <edge id="-106134372" from="1222027143" to="1222027498" name="Avenida Camarmilla" priority="6" type="highway.tertiary" numLanes="1" speed="11.11" shape="-3.380286,40.486586 -3.380070,40.486537 -3.379912,40.486473" disallow="tram rail_urban rail rail_electric ship"/>
    <edge id="-106134392#0" from="259133886" to="1222027487" name="Avenida de Ajalvir" priority="6" type="highway.tertiary" numLanes="1" speed="22.22" disallow="tram rail_urban rail rail_electric ship"/>
    <edge id="-106134392#1" from="370869888" to="259133886" name="Avenida de Ajalvir" priority="6" type="highway.tertiary" numLanes="1" speed="22.22" shape="-3.377497,40.489391 -3.377873,40.489369 -3.378537,40.489330" disallow="tram rail_urban rail rail_electric ship"/>
    <edge id="-106134392#2" from="370870032" to="370869888" name="Avenida de Ajalvir" priority="6" type="highway.tertiary" numLanes="1" speed="22.22" shape="-3.375952,40.489827 -3.376239,40.489749 -3.377003,40.489501 -3.377269,40.489425 -3.377497,40.489391" disallow="tram rail_urban rail rail_electric ship"/>
    <edge id="-106147508" from="1222113359" to="1222113344" name="Calle de Don Luis Mejía" priority="4" type="highway.residential" numLanes="1" speed="13.89" shape="-3.332206,40.507253 -3.332183,40.507236 -3.331401,40.506667" disallow="tram rail_urban rail rail_electric ship"/>
    <edge id="-116231961#0" from="259860442" to="1060413965" priority="4" type="highway.residential" numLanes="1" speed="13.89" shape="-3.353789,40.502885 -3.352489,40.501618 -3.352312,40.501598 -3.351049,40.501719" disallow="tram rail_urban rail rail_electric ship"/>
    <edge id="-116231961#1" from="259860452" to="259860442" priority="4" type="highway.residential" numLanes="1" speed="13.89" shape="-3.359733,40.503021 -3.358515,40.503752 -3.357553,40.503550 -3.357313,40.503641 -3.357124,40.503772 -3.356686,40.504248 -3.356223,40.504529 -3.355957,40.504529 -3.355073,40.504124 -3.354798,40.503876 -3.353789,40.502885" disallow="tram rail_urban rail rail_electric ship"/>
    <edge id="-117976252#0" from="3569789609" to="1060458687" name="Calle de Leonardo da Vinci" priority="4" type="highway.residential" numLanes="1" speed="13.89" disallow="tram rail_urban rail rail_electric ship"/>
    <edge id="-117976252#1" from="1060458789" to="3569789609" name="Calle de Leonardo da Vinci" priority="4" type="highway.residential" numLanes="1" speed="13.89" disallow="tram rail_urban rail rail_electric ship"/>
    <edge id="-118195325#0" from="2565206252" to="1329797917" name="Avenida del Doctor Marañón" priority="6" type="highway.tertiary" numLanes="1" speed="13.89" disallow="tram rail_urban rail rail_electric ship"/>
    <edge id="-118195325#1" from="1329797950" to="2565206252" name="Avenida del Doctor Marañón" priority="6" type="highway.tertiary" numLanes="1" speed="13.89" disallow="tram rail_urban rail rail_electric ship"/>
    <edge id="-118195327#0" from="3770784530" to="1329797971" name="Avenida de Daganzo" priority="9" type="highway.primary" numLanes="2" speed="27.78" disallow="tram rail_urban rail rail_electric ship"/>
    <edge id="-118195327#1" from="370869769" to="3770784530" name="Avenida de Daganzo" priority="9" type="highway.primary" numLanes="2" speed="27.78" disallow="tram rail_urban rail rail_electric ship"/>
    <edge id="-118195327#2" from="3770784501" to="370869769" name="Avenida de Daganzo" priority="9" type="highway.primary" numLanes="2" speed="27.78" disallow="tram rail_urban rail rail_electric ship"/>
    <edge id="-118195327#3" from="3770784498" to="3770784501" name="Avenida de Daganzo" priority="9" type="highway.primary" numLanes="2" speed="27.78" disallow="tram rail_urban rail rail_electric ship"/>
    <edge id="-118195327#4" from="370869748" to="3770784498" name="Avenida de Daganzo" priority="9" type="highway.primary" numLanes="2" speed="27.78" disallow="tram rail_urban rail rail_electric ship"/>
    <edge id="-118195327#5" from="1329797979" to="370869748" name="Avenida de Daganzo" priority="9" type="highway.primary" numLanes="2" speed="27.78" disallow="tram rail_urban rail rail_electric ship"/>
    <edge id="-118195328#0" from="302332271" to="259133783" name="Carretera de Camarma" priority="6" type="highway.tertiary" numLanes="1" speed="13.89" shape="-3.377826,40.497961 -3.377765,40.497828 -3.377662,40.497541 -3.377603,40.497233" disallow="tram rail_urban rail rail_electric ship"/>
    <edge id="-118195328#1" from="3770784725" to="302332271" name="Carretera de Camarma" priority="6" type="highway.tertiary" numLanes="1" speed="13.89" disallow="tram rail_urban rail rail_electric ship"/>
    <edge id="-118195328#2" from="259133785" to="3770784725" name="Carretera de Camarma" priority="6" type="highway.tertiary" numLanes="1" speed="13.89" disallow="tram rail_urban rail rail_electric ship"/>
    <edge id="-118201157" from="259719734" to="311296898" name="Camino Santiago" priority="6" type="highway.tertiary" numLanes="1" speed="22.22" shape="-3.369327,40.490967 -3.369319,40.490918 -3.369476,40.490604 -3.369773,40.490237 -3.370152,40.489793" disallow="tram rail_urban rail rail_electric ship"/>
    <edge id="-118201163#0" from="259718093" to="1373121868" name="Calle Augusto Roa Bastos" priority="4" type="highway.residential" numLanes="1" speed="13.89" disallow="tram rail_urban rail rail_electric ship"/>
    <edge id="-118201163#1" from="259717973" to="259718093" name="Calle Augusto Roa Bastos" priority="4" type="highway.residential" numLanes="1" speed="13.89" disallow="tram rail_urban rail rail_electric ship"/>
    <edge id="-118201170#0" from="259719741" to="259719734" name="Calle de Alalpardo" priority="6" type="highway.tertiary" numLanes="1" speed="22.22" shape="-3.368140,40.492348 -3.368479,40.492126 -3.368563,40.491907 -3.368533,40.491619 -3.368443,40.491437 -3.368449,40.491338 -3.368589,40.491228 -3.369327,40.490967" disallow="tram rail_urban rail rail_electric ship"/>
    <edge id="-118201170#1" from="259719743" to="259719741" name="Calle de Alalpardo" priority="6" type="highway.tertiary" numLanes="1" speed="22.22" shape="-3.367329,40.492938 -3.367653,40.492645 -3.368140,40.492348" disallow="tram rail_urban rail rail_electric ship"/>
    <edge id="-118201170#2" from="2633066502" to="259719743" name="Calle de Alalpardo" priority="6" type="highway.tertiary" numLanes="1" speed="22.22" disallow="tram rail_urban rail rail_electric ship"/>
    <edge id="-118201170#3" from="2337259685" to="2633066502" name="Calle de Alalpardo" priority="6" type="highway.tertiary" numLanes="1" speed="22.22" shape="-3.367189,40.493383 -3.367232,40.493167 -3.367279,40.493061" disallow="tram rail_urban rail rail_electric ship"/>
    <edge id="-120509978" from="1351112710" to="1351112712" name="Calle Pezuela" priority="4" type="highway.residential" numLanes="1" speed="13.89" disallow="tram rail_urban rail rail_electric ship"/>
    <edge id="-120510394" from="1351118617" to="1351118611" name="Calle Eduardo Pascual y Cuéllar" priority="4" type="highway.residential" numLanes="1" speed="13.89" disallow="tram rail_urban rail rail_electric ship"/>
    <edge id="-120510395" from="1351118606" to="1351118608" priority="4" type="highway.residential" numLanes="1" speed="13.89" disallow="tram rail_urban rail rail_electric ship"/>
    <edge id="-120510396" from="1351118617" to="1351118612" priority="4" type="highway.residential" numLanes="1" speed="13.89" shape="-3.370437,40.488416 -3.370610,40.488510 -3.370723,40.488638" disallow="tram rail_urban rail rail_electric ship"/>
    <edge id="-120510397" from="1351112711" to="1351118620" priority="4" type="highway.residential" numLanes="1" speed="13.89" disallow="tram rail_urban rail rail_electric ship"/>
    <edge id="-123021275" from="1351118613" to="1351118607" name="Calle Eduardo Pascual y Cuéllar" priority="4" type="highway.residential" numLanes="1" speed="13.89" disallow="tram rail_urban rail rail_electric ship"/>
    <edge id="-123021276" from="1351118608" to="1351118610" name="Calle Eduardo Pascual y Cuéllar" priority="4" type="highway.residential" numLanes="1" speed="13.89" disallow="tram rail_urban rail rail_electric ship"/>
    <edge id="-123021280#0" from="2606197606" to="258850724" name="Calle Eras de San Isidro" priority="4" type="highway.residential" numLanes="1" speed="13.89" disallow="tram rail_urban rail rail_electric ship"/>
    <edge id="-123021280#1" from="1373121191" to="2606197606" name="Calle Eras de San Isidro" priority="4" type="highway.residential" numLanes="1" speed="13.89" disallow="tram rail_urban rail rail_electric ship"/>
    <edge id="-123021280#2" from="1373121160" to="1373121191" name="Calle Eras de San Isidro" priority="4" type="highway.residential" numLanes="1" speed="13.89" shape="-3.364181,40.485260 -3.363732,40.485590 -3.363475,40.485992" disallow="tram rail_urban rail rail_electric ship"/>
    <edge id="-123021280#3" from="311296886" to="1373121160" name="Calle Eras de San Isidro" priority="4" type="highway.residential" numLanes="1" speed="13.89" disallow="tram rail_urban rail rail_electric ship"/>
    <edge id="-123483728#0" from="259094459" to="422979392" name="Calle Cuenca" priority="6" type="highway.tertiary" numLanes="1" speed="13.89" shape="-3.343603,40.484124 -3.344037,40.483983 -3.344616,40.483881" disallow="tram rail_urban rail rail_electric ship"/>
    <edge id="-123483728#1" from="259094461" to="259094459" name="Calle Cuenca" priority="6" type="highway.tertiary" numLanes="1" speed="13.89" shape="-3.342781,40.484474 -3.343270,40.484236 -3.343603,40.484124" disallow="tram rail_urban rail rail_electric ship"/>
    <edge id="-123483728#2" from="1376906888" to="259094461" name="Calle Cuenca" priority="6" type="highway.tertiary" numLanes="1" speed="13.89" disallow="tram rail_urban rail rail_electric ship"/>
    <edge id="-123483728#3" from="311421892" to="1376906888" name="Calle Cuenca" priority="6" type="highway.tertiary" numLanes="1" speed="13.89" disallow="tram rail_urban rail rail_electric ship"/>
    <edge id="-123483728#4" from="259134202" to="311421892" name="Calle Cuenca" priority="6" type="highway.tertiary" numLanes="1" speed="13.89" disallow="tram rail_urban rail rail_electric ship"/>
    <edge id="-123483740#0" from="1376906395" to="1376906896" name="Calle Talavera" priority="3" type="highway.living_street" numLanes="1" speed="2.78" disallow="tram rail_urban rail rail_electric ship"/>
    <edge id="-123483740#1" from="1376906695" to="1376906395" name="Calle Talavera" priority="3" type="highway.living_street" numLanes="1" speed="2.78" disallow="tram rail_urban rail rail_electric ship"/>
    <edge id="-123483741" from="1376907321" to="1376907481" name="Calle Málaga" priority="3" type="highway.living_street" numLanes="1" speed="2.78" disallow="tram rail_urban rail rail_electric ship"/>
    <edge id="-123483753#0" from="1376906981" to="1376907323" priority="4" type="highway.residential" numLanes="1" speed="13.89" disallow="tram rail_urban rail rail_electric ship"/>
    <edge id="-123483753#1" from="1376907021" to="1376906981" priority="4" type="highway.residential" numLanes="1" speed="13.89" disallow="tram rail_urban rail rail_electric ship"/>
    <edge id="-123483753#2" from="1376906816" to="1376907021" priority="4" type="highway.residential" numLanes="1" speed="13.89" disallow="tram rail_urban rail rail_electric ship"/>
    <edge id="-123483753#3" from="1376907252" to="1376906816" priority="4" type="highway.residential" numLanes="1" speed="13.89" disallow="tram rail_urban rail rail_electric ship"/>
    <edge id="-123483753#4" from="1376907155" to="1376907252" priority="4" type="highway.residential" numLanes="1" speed="13.89" disallow="tram rail_urban rail rail_electric ship"/>
    <edge id="-123483754#0" from="1376907397" to="1376907434" name="Calle Batalla del Ebro" priority="3" type="highway.living_street" numLanes="1" speed="2.78" disallow="tram rail_urban rail rail_electric ship"/>
    <edge id="-123483754#1" from="1376906550" to="1376907397" name="Calle Batalla del Ebro" priority="3" type="highway.living_street" numLanes="1" speed="2.78" disallow="tram rail_urban rail rail_electric ship"/>
    <edge id="-123483754#2" from="1376906375" to="1376906550" name="Calle Batalla del Ebro" priority="3" type="highway.living_street" numLanes="1" speed="2.78" disallow="tram rail_urban rail rail_electric ship"/>
    <edge id="-123483754#3" from="1376906896" to="1376906375" name="Calle Batalla del Ebro" priority="3" type="highway.living_street" numLanes="1" speed="2.78" disallow="tram rail_urban rail rail_electric ship"/>
    <edge id="-123483754#4" from="370868996" to="1376906896" name="Calle Batalla del Ebro" priority="3" type="highway.living_street" numLanes="1" speed="2.78" disallow="tram rail_urban rail rail_electric ship"/>
    <edge id="-123483762#0" from="1376906594" to="1376906431" priority="4" type="highway.residential" numLanes="1" speed="13.89" shape="-3.366987,40.513990 -3.367157,40.513624 -3.367157,40.513521" disallow="tram rail_urban rail rail_electric ship"/>
    <edge id="-123483762#1" from="1376906760" to="1376906594" priority="4" type="highway.residential" numLanes="1" speed="13.89" disallow="tram rail_urban rail rail_electric ship"/>
    <edge id="-123483762#2" from="1376907185" to="1376906760" priority="4" type="highway.residential" numLanes="1" speed="13.89" shape="-3.365142,40.514139 -3.366142,40.514410 -3.366278,40.514404 -3.366908,40.514173" disallow="tram rail_urban rail rail_electric ship"/>
    <edge id="-123483762#3" from="1222026627" to="1376907185" priority="4" type="highway.residential" numLanes="1" speed="13.89" shape="-3.363738,40.514338 -3.364165,40.514281 -3.365001,40.514121 -3.365142,40.514139" disallow="tram rail_urban rail rail_electric ship"/>
    <edge id="-123483779" from="1376907339" to="1376906275" name="Calle Félix Yuste" priority="4" type="highway.residential" numLanes="1" speed="13.89" disallow="tram rail_urban rail rail_electric ship"/>
    <edge id="-123483783#0" from="1376907260" to="1376907047" name="Calle Batalla del Jarama" priority="3" type="highway.living_street" numLanes="1" speed="2.78" disallow="tram rail_urban rail rail_electric ship"/>
    <edge id="-123483783#1" from="1376906375" to="1376907260" name="Calle Batalla del Jarama" priority="3" type="highway.living_street" numLanes="1" speed="2.78" disallow="tram rail_urban rail rail_electric ship"/>
    <edge id="-123483789" from="1376907467" to="1376906403" name="Calle Lugo" priority="4" type="highway.residential" numLanes="1" speed="13.89" disallow="tram rail_urban rail rail_electric ship"/>
    <edge id="-123483790" from="991966702" to="991966639" name="Calle de El Escorial" priority="4" type="highway.residential" numLanes="1" speed="13.89" shape="-3.349154,40.493412 -3.350193,40.494367 -3.350333,40.494477" disallow="tram rail_urban rail rail_electric ship"/>
    <edge id="-123483798#0" from="1376907490" to="1376906493" priority="4" type="highway.residential" numLanes="1" speed="13.89" shape="-3.346088,40.491124 -3.346941,40.492115 -3.346995,40.492089" disallow="tram rail_urban rail rail_electric ship"/>
    <edge id="-123483798#1" from="1376906826" to="1376907490" priority="4" type="highway.residential" numLanes="1" speed="13.89" shape="-3.345445,40.490270 -3.345404,40.490289 -3.346088,40.491124" disallow="tram rail_urban rail rail_electric ship"/>
    <edge id="-123483817#0" from="1376906589" to="1376906495" priority="4" type="highway.residential" numLanes="1" speed="13.89" disallow="tram rail_urban rail rail_electric ship"/>
    <edge id="-123483817#1" from="1376906816" to="1376906589" priority="4" type="highway.residential" numLanes="1" speed="13.89" shape="-3.370228,40.512835 -3.370161,40.512758 -3.370318,40.512402" disallow="tram rail_urban rail rail_electric ship"/>
    <edge id="-123483820" from="1376907216" to="1376906477" name="Calle Valencia" priority="4" type="highway.residential" numLanes="1" speed="13.89" shape="-3.338519,40.489736 -3.338712,40.489730 -3.338959,40.489612 -3.338949,40.489229 -3.339278,40.489062" disallow="tram rail_urban rail rail_electric ship"/>
    <edge id="-123483821#0" from="1376907351" to="1376907185" name="Calle Sancho Garcés El Mayor" priority="4" type="highway.residential" numLanes="1" speed="13.89" disallow="tram rail_urban rail rail_electric ship"/>
    <edge id="-123483821#1" from="2027136224" to="1376907351" name="Calle Sancho Garcés El Mayor" priority="4" type="highway.residential" numLanes="1" speed="13.89" disallow="tram rail_urban rail rail_electric ship"/>
    <edge id="-123483821#2" from="1376906683" to="2027136224" name="Calle Sancho Garcés El Mayor" priority="4" type="highway.residential" numLanes="1" speed="13.89" disallow="tram rail_urban rail rail_electric ship"/>
    <edge id="-123483821#3" from="1376906522" to="1376906683" name="Calle Sancho Garcés El Mayor" priority="4" type="highway.residential" numLanes="1" speed="13.89" disallow="tram rail_urban rail rail_electric ship"/>
    <edge id="-123483821#4" from="2027136203" to="1376906522" name="Calle Sancho Garcés El Mayor" priority="4" type="highway.residential" numLanes="1" speed="13.89" disallow="tram rail_urban rail rail_electric ship"/>
    <edge id="-123483821#5" from="1376906270" to="2027136203" name="Calle Sancho Garcés El Mayor" priority="4" type="highway.residential" numLanes="1" speed="13.89" disallow="tram rail_urban rail rail_electric ship"/>
    <edge id="-123483821#6" from="2027136075" to="1376906270" name="Calle Sancho Garcés El Mayor" priority="4" type="highway.residential" numLanes="1" speed="13.89" disallow="tram rail_urban rail rail_electric ship"/>
    <edge id="-123483821#7" from="1376907045" to="2027136075" name="Calle Sancho Garcés El Mayor" priority="4" type="highway.residential" numLanes="1" speed="13.89" disallow="tram rail_urban rail rail_electric ship"/>
    <edge id="-123483822#0" from="3577719398" to="246255595" name="Residencia Univesitaria" priority="3" type="highway.living_street" numLanes="1" speed="2.78" disallow="tram rail_urban rail rail_electric ship"/>
    <edge id="-123483822#1" from="1376907093" to="3577719398" name="Residencia Univesitaria" priority="3" type="highway.living_street" numLanes="1" speed="2.78" shape="-3.348754,40.505950 -3.348112,40.507363 -3.348328,40.507583" disallow="tram rail_urban rail rail_electric ship"/>
    <edge id="-123483825#0" from="3855467046" to="3855467039" priority="4" type="highway.residential" numLanes="1" speed="13.89" shape="-3.335270,40.498365 -3.335110,40.498308 -3.335007,40.498283 -3.334933,40.498243" disallow="tram rail_urban rail rail_electric ship"/>
    <edge id="-123483825#1" from="3855467051" to="3855467046" priority="4" type="highway.residential" numLanes="1" speed="13.89" shape="-3.335789,40.498847 -3.335358,40.498433 -3.335270,40.498365" disallow="tram rail_urban rail rail_electric ship"/>
    <edge id="-123483825#2" from="322086008" to="3855467051" priority="4" type="highway.residential" numLanes="1" speed="13.89" disallow="tram rail_urban rail rail_electric ship"/>
    <edge id="-123483829#0" from="1376907100" to="259861762" name="Calle Plus Ultra" priority="4" type="highway.residential" numLanes="1" speed="13.89" shape="-3.346033,40.498187 -3.346139,40.498245 -3.347253,40.500160 -3.348330,40.501061" disallow="tram rail_urban rail rail_electric ship"/>
    <edge id="-123483829#1" from="1376907268" to="1376907100" name="Calle Plus Ultra" priority="4" type="highway.residential" numLanes="1" speed="13.89" shape="-3.345145,40.498223 -3.345810,40.498161 -3.346033,40.498187" disallow="tram rail_urban rail rail_electric ship"/>
    <edge id="-123483836" from="1376907356" to="1376906292" name="Calle Bruselas" priority="4" type="highway.residential" numLanes="1" speed="13.89" disallow="tram rail_urban rail rail_electric ship"/>
    <edge id="-123483852" from="1376906639" to="1376907307" name="Calle Orense" priority="4" type="highway.residential" numLanes="1" speed="13.89" disallow="tram rail_urban rail rail_electric ship"/>
    <edge id="-123483854" from="1376906737" to="1376906900" name="Calle Chile" priority="4" type="highway.residential" numLanes="1" speed="13.89" disallow="tram rail_urban rail rail_electric ship"/>
    <edge id="-123483857#0" from="259862790" to="259862791" name="Calle Camino de la Esgaravita" priority="4" type="highway.residential" numLanes="1" speed="13.89" disallow="tram rail_urban rail rail_electric ship"/>
    <edge id="-123483857#1" from="259862787" to="259862790" name="Calle Camino de la Esgaravita" priority="4" type="highway.residential" numLanes="1" speed="13.89" disallow="tram rail_urban rail rail_electric ship"/>
    <edge id="-123483857#2" from="259862786" to="259862787" name="Calle Camino de la Esgaravita" priority="4" type="highway.residential" numLanes="1" speed="13.89" disallow="tram rail_urban rail rail_electric ship"/>
    <edge id="-123483857#3" from="2779166203" to="259862786" name="Calle Camino de la Esgaravita" priority="4" type="highway.residential" numLanes="1" speed="13.89" shape="-3.347109,40.492482 -3.347160,40.492452 -3.347907,40.492088 -3.348687,40.491730" disallow="tram rail_urban rail rail_electric ship"/>
    <edge id="-123483857#4" from="267044838" to="2779166203" name="Calle Camino de la Esgaravita" priority="4" type="highway.residential" numLanes="1" speed="13.89" disallow="tram rail_urban rail rail_electric ship"/>
    <edge id="-123483861" from="1376907238" to="3855524223" name="Calle Murcia" priority="4" type="highway.residential" numLanes="1" speed="13.89" disallow="tram rail_urban rail rail_electric ship"/>
    <edge id="-123483880#0" from="1376906423" to="1376906654" priority="4" type="highway.residential" numLanes="1" speed="13.89" disallow="tram rail_urban rail rail_electric ship"/>
    <edge id="-123483880#1" from="1376906978" to="1376906423" priority="4" type="highway.residential" numLanes="1" speed="13.89" shape="-3.369406,40.512631 -3.369528,40.512581 -3.369691,40.512236" disallow="tram rail_urban rail rail_electric ship"/>
    <edge id="-123483885" from="1376907390" to="1376906381" name="Calle San Sebastián" priority="4" type="highway.residential" numLanes="1" speed="13.89" disallow="tram rail_urban rail rail_electric ship"/>
    <edge id="-123483888#0" from="1376907041" to="259134158" name="Calle Milán" priority="4" type="highway.residential" numLanes="1" speed="13.89" shape="-3.337626,40.497165 -3.338407,40.496675 -3.338522,40.496525" disallow="tram rail_urban rail rail_electric ship"/>
    <edge id="-123483888#1" from="1376906292" to="1376907041" name="Calle Milán" priority="4" type="highway.residential" numLanes="1" speed="13.89" disallow="tram rail_urban rail rail_electric ship"/>