<tazs>
  <taz id="CascoHistorico">
    <!-- name="Teniente Ruiz" -->
    <tazSource id="-23904499" weight="0">
    <tazSink id="-23904499" weight="0">
    <!-- name="" -->
    <tazSource id="32402031" weight="0">
    <tazSink id="32402031" weight="0">
    <!-- name="" -->
    <tazSource id="395906349" weight="0">
    <tazSink id="395906349" weight="0">
    <!-- name="" -->
    <tazSource id="32402914" weight="0">
    <tazSink id="32402914" weight="0">
    <!-- name="Calle Gran Canal" -->
    <tazSource id="395906340" weight="0">
    <tazSink id="395906340" weight="0">
    <!-- name="Calle de Juliana Merino" -->
    <tazSource id="-28355558" weight="0">
    <tazSink id="-28355558" weight="0">
    <!-- name="Calle del Cid Campeador" -->
    <tazSource id="32403593#0" weight="0">
    <tazSink id="32403593#0" weight="0">
    <!-- name="Plaza de Rodríguez Marín" -->
    <tazSource id="78579994" weight="0">
    <tazSink id="78579994" weight="0">
    <!-- name="Calle Trinidad" -->
    <tazSource id="-408961940" weight="0">
    <tazSink id="-408961940" weight="0">
    <!-- name="Paseo de Pastrana" -->
    <tazSource id="158350668#1" weight="0">
    <tazSink id="158350668#1" weight="0">
    <!-- name="Calle de San Cirilo" -->
    <tazSource id="-32900473#1" weight="0">
    <tazSink id="-32900473#1" weight="0">
    <!-- name="Calle de San Cirilo" -->
    <tazSource id="-32900473#0" weight="0">
    <tazSink id="-32900473#0" weight="0">
    <!-- name="Calle de San Cirilo" -->
    <tazSource id="-32900473#3" weight="0">
    <tazSink id="-32900473#3" weight="0">
    <!-- name="Calle de San Cirilo" -->
    <tazSource id="-32900473#2" weight="0">
    <tazSink id="-32900473#2" weight="0">
    <!-- name="Calle Río Sil" -->
    <tazSource id="-32900457" weight="0">
    <tazSink id="-32900457" weight="0">
    <!-- name="Avenida de Madrid" -->
    <tazSource id="75482916#0" weight="0">
    <tazSink id="75482916#0" weight="0">
    <!-- name="Avenida de Madrid" -->
    <tazSource id="75482916#3" weight="0">
    <tazSink id="75482916#3" weight="0">
    <!-- name="Avenida de Madrid" -->
    <tazSource id="75482916#2" weight="0">
    <tazSink id="75482916#2" weight="0">
    <!-- name="Calle Puente Rialto" -->
    <tazSource id="-32900453" weight="0">
    <tazSink id="-32900453" weight="0">
    <!-- name="Avenida de Madrid" -->
    <tazSource id="75482916#4" weight="0">
    <tazSink id="75482916#4" weight="0">
    <!-- name="Avenida de Madrid" -->
    <tazSource id="75482916#7" weight="0">
    <tazSink id="75482916#7" weight="0">
    <!-- name="Calle Arratia" -->
    <tazSource id="36247763#0" weight="0">
    <tazSink id="36247763#0" weight="0">
    <!-- name="Paseo de Pastrana" -->
    <tazSource id="158350668#4" weight="0">
    <tazSink id="158350668#4" weight="0">
    <!-- name="Calle Río Duero" -->
    <tazSource id="174188607" weight="0">
    <tazSink id="174188607" weight="0">
    <!-- name="Paseo de Pastrana" -->
    <tazSource id="158350668#3" weight="0">
    <tazSink id="158350668#3" weight="0">
    <!-- name="" -->
    <tazSource id="32401911" weight="0">
    <tazSink id="32401911" weight="0">
    <!-- name="" -->
    <tazSource id="32401917" weight="0">
    <tazSink id="32401917" weight="0">
    <!-- name="Paseo de los Curas" -->
    <tazSource id="32402199#1" weight="0">
    <tazSink id="32402199#1" weight="0">
    <!-- name="Paseo de los Curas" -->
    <tazSource id="32402199#3" weight="0">
    <tazSink id="32402199#3" weight="0">
    <!-- name="Paseo de los Curas" -->
    <tazSource id="32402199#2" weight="0">
    <tazSink id="32402199#2" weight="0">
    <!-- name="Paseo de los Curas" -->
    <tazSource id="32402199#5" weight="0">
    <tazSink id="32402199#5" weight="0">
    <!-- name="Paseo de los Curas" -->
    <tazSource id="32402199#4" weight="0">
    <tazSink id="32402199#4" weight="0">
    <!-- name="Calle de Avellaneda" -->
    <tazSource id="-36248920#2" weight="0">
    <tazSink id="-36248920#2" weight="0">
    <!-- name="Calle de Portilla" -->
    <tazSource id="-23904435#1" weight="0">
    <tazSink id="-23904435#1" weight="0">
    <!-- name="Calle de Portilla" -->
    <tazSource id="-23904435#0" weight="0">
    <tazSink id="-23904435#0" weight="0">
    <!-- name="Calle Marqués de Alonso Martínez" -->
    <tazSource id="32900481#0" weight="0">
    <tazSink id="32900481#0" weight="0">
    <!-- name="Calle de Santiago" -->
    <tazSource id="23858696#0" weight="0">
    <tazSink id="23858696#0" weight="0">
    <!-- name="Calle de Santiago" -->
    <tazSource id="23858696#1" weight="0">
    <tazSink id="23858696#1" weight="0">
    <!-- name="Calle de Santiago" -->
    <tazSource id="23858696#2" weight="0">
    <tazSink id="23858696#2" weight="0">
    <!-- name="Calle de Santiago" -->
    <tazSource id="23858696#3" weight="0">
    <tazSink id="23858696#3" weight="0">
    <!-- name="Calle de Santiago" -->
    <tazSource id="23858696#4" weight="0">
    <tazSink id="23858696#4" weight="0">
    <!-- name="Calle de Santiago" -->
    <tazSource id="23858696#5" weight="0">
    <tazSink id="23858696#5" weight="0">
    <!-- name="Calle de Santiago" -->
    <tazSource id="23858696#6" weight="0">
    <tazSink id="23858696#6" weight="0">
    <!-- name="Ronda de la Pescadería" -->
    <tazSource id="23905091#1" weight="0">
    <tazSink id="23905091#1" weight="0">
    <!-- name="Calle de Andrés Saborit" -->
    <tazSource id="-61312536#0" weight="0">
    <tazSink id="-61312536#0" weight="0">
    <!-- name="Calle de Andrés Saborit" -->
    <tazSource id="-61312536#1" weight="0">
    <tazSink id="-61312536#1" weight="0">
    <!-- name="Calle de Andrés Saborit" -->
    <tazSource id="-61312536#2" weight="0">
    <tazSink id="-61312536#2" weight="0">
    <!-- name="Calle de Andrés Saborit" -->
    <tazSource id="-61312536#3" weight="0">
    <tazSink id="-61312536#3" weight="0">
    <!-- name="Calle del Cid Campeador" -->
    <tazSource id="32403593#1" weight="0">
    <tazSink id="32403593#1" weight="0">
    <!-- name="Calle Río Cañamares" -->
    <tazSource id="32900459#1" weight="0">
    <tazSink id="32900459#1" weight="0">
    <!-- name="" -->
    <tazSource id="421819873" weight="0">
    <tazSink id="421819873" weight="0">
    <!-- name="Calle de Murano" -->
    <tazSource id="188988853" weight="0">
    <tazSink id="188988853" weight="0">
    <!-- name="Paseo de la Alameda" -->
    <tazSource id="-23904506#2" weight="0">
    <tazSink id="-23904506#2" weight="0">
    <!-- name="Paseo de la Alameda" -->
    <tazSource id="-23904506#3" weight="0">
    <tazSink id="-23904506#3" weight="0">
    <!-- name="Paseo de la Alameda" -->
    <tazSource id="-23904506#0" weight="0">
    <tazSink id="-23904506#0" weight="0">
    <!-- name="Paseo de la Alameda" -->
    <tazSource id="-23904506#1" weight="0">
    <tazSink id="-23904506#1" weight="0">
    <!-- name="Calle del Cardenal Sandoval" -->
    <tazSource id="25158824#0" weight="0">
    <tazSink id="25158824#0" weight="0">
    <!-- name="Calle del Cardenal Sandoval" -->
    <tazSource id="25158824#1" weight="0">
    <tazSink id="25158824#1" weight="0">
    <!-- name="Calle Río Tormes" -->
    <tazSource id="-32402834#0" weight="0">
    <tazSink id="-32402834#0" weight="0">
    <!-- name="Calle Arratia" -->
    <tazSource id="36247763#1" weight="0">
    <tazSink id="36247763#1" weight="0">
    <!-- name="Calle de las Siete Esquinas" -->
    <tazSource id="-191930236#0" weight="0">
    <tazSink id="-191930236#0" weight="0">
    <!-- name="Calle de las Siete Esquinas" -->
    <tazSource id="-191930236#1" weight="0">
    <tazSink id="-191930236#1" weight="0">
    <!-- name="Calle San Diego de Alcalá" -->
    <tazSource id="23904618#0" weight="0">
    <tazSink id="23904618#0" weight="0">
    <!-- name="Calle San Diego de Alcalá" -->
    <tazSource id="23904618#1" weight="0">
    <tazSink id="23904618#1" weight="0">
    <!-- name="Plaza de Cervantes" -->
    <tazSource id="23858625#1" weight="0">
    <tazSink id="23858625#1" weight="0">
    <!-- name="Calle del Empecinado" -->
    <tazSource id="-192156459" weight="0">
    <tazSink id="-192156459" weight="0">
    <!-- name="Calle Tomás Merino" -->
    <tazSource id="158255578" weight="0">
    <tazSink id="158255578" weight="0">
    <!-- name="Calle Vaqueras" -->
    <tazSource id="-28343725#1" weight="0">
    <tazSink id="-28343725#1" weight="0">
    <!-- name="Calle Vaqueras" -->
    <tazSource id="-28343725#0" weight="0">
    <tazSink id="-28343725#0" weight="0">
    <!-- name="Calle Vaqueras" -->
    <tazSource id="-28343725#3" weight="0">
    <tazSink id="-28343725#3" weight="0">
    <!-- name="Calle Vaqueras" -->
    <tazSource id="-28343725#2" weight="0">
    <tazSink id="-28343725#2" weight="0">
    <!-- name="Calle Vaqueras" -->
    <tazSource id="-28343725#4" weight="0">
    <tazSink id="-28343725#4" weight="0">
    <!-- name="" -->
    <tazSource id="394231499#2" weight="0">
    <tazSink id="394231499#2" weight="0">
    <!-- name="Vía Complutense" -->
    <tazSource id="-91348386#6" weight="0">
    <tazSink id="-91348386#6" weight="0">
    <!-- name="Paseo de la Alameda" -->
    <tazSource id="-409139013" weight="0">
    <tazSink id="-409139013" weight="0">
    <!-- name="" -->
    <tazSource id="-404635470#1" weight="0">
    <tazSink id="-404635470#1" weight="0">
    <!-- name="" -->
    <tazSource id="394231499#0" weight="0">
    <tazSink id="394231499#0" weight="0">
    <!-- name="Calle Diego de Torres" -->
    <tazSource id="-23881407#0" weight="0">
    <tazSink id="-23881407#0" weight="0">
    <!-- name="Calle Diego de Torres" -->
    <tazSource id="-23881407#1" weight="0">
    <tazSink id="-23881407#1" weight="0">
    <!-- name="Calle Seises" -->
    <tazSource id="36248187#0" weight="0">
    <tazSink id="36248187#0" weight="0">
    <!-- name="Calle Seises" -->
    <tazSource id="36248187#1" weight="0">
    <tazSink id="36248187#1" weight="0">
    <!-- name="Calle Diego de Torres" -->
    <tazSource id="252184788#2" weight="0">
    <tazSink id="252184788#2" weight="0">
    <!-- name="Calle Colegios" -->
    <tazSource id="-23869711#2" weight="0">
    <tazSink id="-23869711#2" weight="0">
    <!-- name="Calle Colegios" -->
    <tazSource id="-23869711#0" weight="0">
    <tazSink id="-23869711#0" weight="0">
    <!-- name="Calle Colegios" -->
    <tazSource id="-23869711#1" weight="0">
    <tazSink id="-23869711#1" weight="0">
    <!-- name="Plaza de las Siete Esquinas" -->
    <tazSource id="192156583#0" weight="0">
    <tazSink id="192156583#0" weight="0">
    <!-- name="Avenida de Madrid" -->
    <tazSource id="75482916#1" weight="0">
    <tazSink id="75482916#1" weight="0">
    <!-- name="Plaza de las Siete Esquinas" -->
    <tazSource id="192156583#2" weight="0">
    <tazSink id="192156583#2" weight="0">
    <!-- name="Ronda del Henares" -->
    <tazSource id="409578705#1" weight="0">
    <tazSink id="409578705#1" weight="0">
    <!-- name="Ronda del Henares" -->
    <tazSource id="409578705#0" weight="0">
    <tazSink id="409578705#0" weight="0">
    <!-- name="Ronda del Henares" -->
    <tazSource id="409578705#3" weight="0">
    <tazSink id="409578705#3" weight="0">
    <!-- name="Ronda del Henares" -->
    <tazSource id="409578705#2" weight="0">
    <tazSink id="409578705#2" weight="0">
    <!-- name="Calle Trinidad" -->
    <tazSource id="-192156456" weight="0">
    <tazSink id="-192156456" weight="0">
    <!-- name="Calle de Carmen Calzado" -->
    <tazSource id="23870088" weight="0">
    <tazSink id="23870088" weight="0">
    <!-- name="Calle de Andrés Saborit" -->
    <tazSource id="61312526#0" weight="0">
    <tazSink id="61312526#0" weight="0">
    <!-- name="Calle Colegios" -->
    <tazSource id="408875678#1" weight="0">
    <tazSink id="408875678#1" weight="0">
    <!-- name="Calle Colegios" -->
    <tazSource id="408875678#0" weight="0">
    <tazSink id="408875678#0" weight="0">
    <!-- name="Calle Almería" -->
    <tazSource id="158349113#1" weight="0">
    <tazSink id="158349113#1" weight="0">
    <!-- name="Calle Almería" -->
    <tazSource id="158349113#0" weight="0">
    <tazSink id="158349113#0" weight="0">
    <!-- name="Calle San Bernardo" -->
    <tazSource id="75117818" weight="0">
    <tazSink id="75117818" weight="0">
    <!-- name="Calle de Andrés Saborit" -->
    <tazSource id="197935587" weight="0">
    <tazSink id="197935587" weight="0">
    <!-- name="Calle Marqués de Alonso Martínez" -->
    <tazSource id="-32900481#0" weight="0">
    <tazSink id="-32900481#0" weight="0">
    <!-- name="" -->
    <tazSource id="-395906359#0" weight="0">
    <tazSink id="-395906359#0" weight="0">
    <!-- name="Paseo Aguadores" -->
    <tazSource id="32907255#4" weight="0">
    <tazSink id="32907255#4" weight="0">
    <!-- name="" -->
    <tazSource id="36248211" weight="0">
    <tazSink id="36248211" weight="0">
    <!-- name="Calle de Avellaneda" -->
    <tazSource id="-36248920#0" weight="0">
    <tazSink id="-36248920#0" weight="0">
    <!-- name="Vía Complutense" -->
    <tazSource id="19916361#0" weight="0">
    <tazSink id="19916361#0" weight="0">
    <!-- name="Ronda Fiscal" -->
    <tazSource id="304149611#5" weight="0">
    <tazSink id="304149611#5" weight="0">
    <!-- name="Ronda Fiscal" -->
    <tazSource id="304149611#4" weight="0">
    <tazSink id="304149611#4" weight="0">
    <!-- name="Ronda Fiscal" -->
    <tazSource id="304149611#6" weight="0">
    <tazSink id="304149611#6" weight="0">
    <!-- name="Ronda Fiscal" -->
    <tazSource id="304149611#1" weight="0">
    <tazSink id="304149611#1" weight="0">
    <!-- name="Ronda Fiscal" -->
    <tazSource id="304149611#0" weight="0">
    <tazSink id="304149611#0" weight="0">
    <!-- name="Ronda Fiscal" -->
    <tazSource id="304149611#3" weight="0">
    <tazSink id="304149611#3" weight="0">
    <!-- name="Ronda Fiscal" -->
    <tazSource id="304149611#2" weight="0">
    <tazSink id="304149611#2" weight="0">
    <!-- name="Plaza San Diego" -->
    <tazSource id="-61238145#1" weight="0">
    <tazSink id="-61238145#1" weight="0">
    <!-- name="Vía Complutense" -->
    <tazSource id="19916361#2" weight="0">
    <tazSink id="19916361#2" weight="0">
    <!-- name="Vía Complutense" -->
    <tazSource id="23867718#1" weight="0">
    <tazSink id="23867718#1" weight="0">
    <!-- name="" -->
    <tazSource id="408880654#1" weight="0">
    <tazSink id="408880654#1" weight="0">
    <!-- name="Calle del Cardenal Sandoval" -->
    <tazSource id="-32403229" weight="0">
    <tazSink id="-32403229" weight="0">
    <!-- name="" -->
    <tazSource id="-357265174" weight="0">
    <tazSink id="-357265174" weight="0">
    <!-- name="Plaza San Diego" -->
    <tazSource id="-61238145#0" weight="0">
    <tazSink id="-61238145#0" weight="0">
    <!-- name="" -->
    <tazSource id="32401949" weight="0">
    <tazSink id="32401949" weight="0">
    <!-- name="Ronda del Henares" -->
    <tazSource id="32900469" weight="0">
    <tazSink id="32900469" weight="0">
    <!-- name="Calle Luis Gómez El Estudiante" -->
    <tazSource id="32900474" weight="0">
    <tazSink id="32900474" weight="0">
    <!-- name="Calle del Río Torote" -->
    <tazSource id="32900467" weight="0">
    <tazSink id="32900467" weight="0">
    <!-- name="Paseo Aguadores" -->
    <tazSource id="32907255#0" weight="0">
    <tazSink id="32907255#0" weight="0">
    <!-- name="Calle de Portilla" -->
    <tazSource id="23904435#1" weight="0">
    <tazSink id="23904435#1" weight="0">
    <!-- name="Calle de Portilla" -->
    <tazSource id="23904435#0" weight="0">
    <tazSink id="23904435#0" weight="0">
    <!-- name="calle de Santa María la Rica" -->
    <tazSource id="36248958#0" weight="0">
    <tazSink id="36248958#0" weight="0">
    <!-- name="" -->
    <tazSource id="-395906351" weight="0">
    <tazSink id="-395906351" weight="0">
    <!-- name="" -->
    <tazSource id="-395906361#0" weight="0">
    <tazSink id="-395906361#0" weight="0">
    <!-- name="" -->
    <tazSource id="-395906361#1" weight="0">
    <tazSink id="-395906361#1" weight="0">
    <!-- name="Calle de la Merced" -->
    <tazSource id="192156458" weight="0">
    <tazSink id="192156458" weight="0">
    <!-- name="" -->
    <tazSource id="-158273362" weight="0">
    <tazSink id="-158273362" weight="0">
    <!-- name="Calle Capuchinos" -->
    <tazSource id="-339795792" weight="0">
    <tazSink id="-339795792" weight="0">
    <!-- name="Calle de Nuestra Señora de la Esperanza" -->
    <tazSource id="36249959" weight="0">
    <tazSink id="36249959" weight="0">
    <!-- name="Calle Río Tormes" -->
    <tazSource id="-32402834#2" weight="0">
    <tazSink id="-32402834#2" weight="0">
    <!-- name="Calle Río Tormes" -->
    <tazSource id="-32402834#1" weight="0">
    <tazSink id="-32402834#1" weight="0">
    <!-- name="Calle Río Aliendre" -->
    <tazSource id="32900461" weight="0">
    <tazSink id="32900461" weight="0">
    <!-- name="Calle Nebrija" -->
    <tazSource id="61238146#0" weight="0">
    <tazSink id="61238146#0" weight="0">
    <!-- name="Calle Nebrija" -->
    <tazSource id="61238146#1" weight="0">
    <tazSink id="61238146#1" weight="0">
    <!-- name="Calle de la Madre de Dios" -->
    <tazSource id="32403591" weight="0">
    <tazSink id="32403591" weight="0">
    <!-- name="" -->
    <tazSource id="394231499#1" weight="0">
    <tazSink id="394231499#1" weight="0">
    <!-- name="Calle de la Infanta Catalina" -->
    <tazSource id="191932329#1" weight="0">
    <tazSink id="191932329#1" weight="0">
    <!-- name="Calle de la Infanta Catalina" -->
    <tazSource id="191932329#0" weight="0">
    <tazSink id="191932329#0" weight="0">
    <!-- name="" -->
    <tazSource id="-357557670" weight="0">
    <tazSink id="-357557670" weight="0">
    <!-- name="Calle Azucena" -->
    <tazSource id="-28355559#1" weight="0">
    <tazSink id="-28355559#1" weight="0">
    <!-- name="Calle Azucena" -->
    <tazSource id="-28355559#0" weight="0">
    <tazSink id="-28355559#0" weight="0">
    <!-- name="Calle Azucena" -->
    <tazSource id="-28355559#3" weight="0">
    <tazSink id="-28355559#3" weight="0">
    <!-- name="Calle Azucena" -->
    <tazSource id="-28355559#2" weight="0">
    <tazSink id="-28355559#2" weight="0">
    <!-- name="Calle Postigo" -->
    <tazSource id="-256287032#1" weight="0">
    <tazSink id="-256287032#1" weight="0">
    <!-- name="Calle Postigo" -->
    <tazSource id="-256287032#0" weight="0">
    <tazSink id="-256287032#0" weight="0">
    <!-- name="Calle Gran Canal" -->
    <tazSource id="395906339" weight="0">
    <tazSink id="395906339" weight="0">
    <!-- name="Calle Ximenez de Rada" -->
    <tazSource id="-36247901" weight="0">
    <tazSink id="-36247901" weight="0">
    <!-- name="Travesía Portilla" -->
    <tazSource id="191930237" weight="0">
    <tazSink id="191930237" weight="0">
    <!-- name="" -->
    <tazSource id="395906361#2" weight="0">
    <tazSink id="395906361#2" weight="0">
    <!-- name="" -->
    <tazSource id="395906361#0" weight="0">
    <tazSink id="395906361#0" weight="0">
    <!-- name="" -->
    <tazSource id="395906361#1" weight="0">
    <tazSink id="395906361#1" weight="0">
    <!-- name="Calle de Portilla" -->
    <tazSource id="-191926973#1" weight="0">
    <tazSink id="-191926973#1" weight="0">
    <!-- name="Calle de Portilla" -->
    <tazSource id="-191926973#0" weight="0">
    <tazSink id="-191926973#0" weight="0">
    <!-- name="Puerta de los Mártires" -->
    <tazSource id="-23904468#1" weight="0">
    <tazSink id="-23904468#1" weight="0">
    <!-- name="Puerta de los Mártires" -->
    <tazSource id="-23904468#0" weight="0">
    <tazSink id="-23904468#0" weight="0">
    <!-- name="Calle Fernán Falcón" -->
    <tazSource id="158349117#1" weight="0">
    <tazSink id="158349117#1" weight="0">
    <!-- name="Vía Complutense" -->
    <tazSource id="75117826#2" weight="0">
    <tazSink id="75117826#2" weight="0">
    <!-- name="Vía Complutense" -->
    <tazSource id="75117826#3" weight="0">
    <tazSink id="75117826#3" weight="0">
    <!-- name="Vía Complutense" -->
    <tazSource id="75117826#4" weight="0">
    <tazSink id="75117826#4" weight="0">
    <!-- name="Vía Complutense" -->
    <tazSource id="75117826#5" weight="0">
    <tazSink id="75117826#5" weight="0">
    <!-- name="Calle Río Guadalquivir" -->
    <tazSource id="188988851" weight="0">
    <tazSink id="188988851" weight="0">
    <!-- name="Plaza de Cervantes" -->
    <tazSource id="69966121#1" weight="0">
    <tazSink id="69966121#1" weight="0">
    <!-- name="Plaza de Cervantes" -->
    <tazSource id="69966121#0" weight="0">
    <tazSink id="69966121#0" weight="0">
    <!-- name="Calle Carmen Descalzo" -->
    <tazSource id="32402836#2" weight="0">
    <tazSink id="32402836#2" weight="0">
    <!-- name="Calle de Andrés Saborit" -->
    <tazSource id="61312528" weight="0">
    <tazSink id="61312528" weight="0">
    <!-- name="Calle de Santo Tomás de Aquino" -->
    <tazSource id="394231484#0" weight="0">
    <tazSink id="394231484#0" weight="0">
    <!-- name="Calle Bustamante de la Cámara" -->
    <tazSource id="61238144" weight="0">
    <tazSink id="61238144" weight="0">
    <!-- name="Calle Carmen Descalzo" -->
    <tazSource id="32402836#1" weight="0">
    <tazSink id="32402836#1" weight="0">
    <!-- name="Calle Carmen Descalzo" -->
    <tazSource id="32402836#0" weight="0">
    <tazSink id="32402836#0" weight="0">
    <!-- name="Calle Carmen Descalzo" -->
    <tazSource id="32402836#3" weight="0">
    <tazSink id="32402836#3" weight="0">
    <!-- name="Calle de Santo Tomás de Aquino" -->
    <tazSource id="394231484#1" weight="0">
    <tazSink id="394231484#1" weight="0">
    <!-- name="Calle de Avellaneda" -->
    <tazSource id="-36248920#1" weight="0">
    <tazSink id="-36248920#1" weight="0">
    <!-- name="Calle Vaqueras" -->
    <tazSource id="28343725#1" weight="0">
    <tazSink id="28343725#1" weight="0">
    <!-- name="Calle Vaqueras" -->
    <tazSource id="28343725#0" weight="0">
    <tazSink id="28343725#0" weight="0">
    <!-- name="Calle del Río Eresma" -->
    <tazSource id="-188988855#0" weight="0">
    <tazSink id="-188988855#0" weight="0">
    <!-- name="Calle Vaqueras" -->
    <tazSource id="28343725#2" weight="0">
    <tazSink id="28343725#2" weight="0">
    <!-- name="Calle Azucena" -->
    <tazSource id="-23904477" weight="0">
    <tazSink id="-23904477" weight="0">
    <!-- name="Calle de Almazán" -->
    <tazSource id="36247684#1" weight="0">
    <tazSink id="36247684#1" weight="0">
    <!-- name="Calle de Almazán" -->
    <tazSource id="36247684#0" weight="0">
    <tazSink id="36247684#0" weight="0">
    <!-- name="Calle de Almazán" -->
    <tazSource id="36247684#3" weight="0">
    <tazSink id="36247684#3" weight="0">
    <!-- name="Calle de Almazán" -->
    <tazSource id="36247684#2" weight="0">
    <tazSink id="36247684#2" weight="0">
    <!-- name="Calle Cardenal Tavera" -->
    <tazSource id="36247800" weight="0">
    <tazSink id="36247800" weight="0">
    <!-- name="Calle Vaqueras" -->
    <tazSource id="28343725#3" weight="0">
    <tazSink id="28343725#3" weight="0">
    <!-- name="Calle Manuel Merino" -->
    <tazSource id="-32933725" weight="0">
    <tazSink id="-32933725" weight="0">
    <!-- name="Calle del Río Eresma" -->
    <tazSource id="-188988855#1" weight="0">
    <tazSink id="-188988855#1" weight="0">
    <!-- name="Calle Beatas" -->
    <tazSource id="23904464" weight="0">
    <tazSink id="23904464" weight="0">
    <!-- name="" -->
    <tazSource id="-404635469" weight="0">
    <tazSink id="-404635469" weight="0">
    <!-- name="" -->
    <tazSource id="-395906368#1" weight="0">
    <tazSink id="-395906368#1" weight="0">
    <!-- name="" -->
    <tazSource id="-395906368#0" weight="0">
    <tazSink id="-395906368#0" weight="0">
    <!-- name="Calle Ximenez de Rada" -->
    <tazSource id="256362045" weight="0">
    <tazSink id="256362045" weight="0">
    <!-- name="" -->
    <tazSource id="-404635467" weight="0">
    <tazSink id="-404635467" weight="0">
    <!-- name="Puerta de los Mártires" -->
    <tazSource id="23904468#1" weight="0">
    <tazSink id="23904468#1" weight="0">
    <!-- name="Paseo de la Alameda" -->
    <tazSource id="409139013" weight="0">
    <tazSink id="409139013" weight="0">
    <!-- name="Calle de los Escritorios" -->
    <tazSource id="75117850#2" weight="0">
    <tazSink id="75117850#2" weight="0">
    <!-- name="Calle de los Escritorios" -->
    <tazSource id="75117850#1" weight="0">
    <tazSink id="75117850#1" weight="0">
    <!-- name="Calle de los Escritorios" -->
    <tazSource id="75117850#0" weight="0">
    <tazSink id="75117850#0" weight="0">
    <!-- name="" -->
    <tazSource id="-357557671" weight="0">
    <tazSink id="-357557671" weight="0">
    <!-- name="Calle de Portilla" -->
    <tazSource id="191926973#1" weight="0">
    <tazSink id="191926973#1" weight="0">
    <!-- name="Calle de Portilla" -->
    <tazSource id="191926973#0" weight="0">
    <tazSink id="191926973#0" weight="0">
    <!-- name="Calle del Empecinado" -->
    <tazSource id="32401945#1" weight="0">
    <tazSink id="32401945#1" weight="0">
    <!-- name="Calle del Empecinado" -->
    <tazSource id="32401945#0" weight="0">
    <tazSink id="32401945#0" weight="0">
    <!-- name="Vía Complutense" -->
    <tazSource id="91348386#1" weight="0">
    <tazSink id="91348386#1" weight="0">
    <!-- name="Vía Complutense" -->
    <tazSource id="91348386#0" weight="0">
    <tazSink id="91348386#0" weight="0">
    <!-- name="Vía Complutense" -->
    <tazSource id="91348386#3" weight="0">
    <tazSink id="91348386#3" weight="0">
    <!-- name="Vía Complutense" -->
    <tazSource id="91348386#2" weight="0">
    <tazSink id="91348386#2" weight="0">
    <!-- name="Vía Complutense" -->
    <tazSource id="91348386#7" weight="0">
    <tazSink id="91348386#7" weight="0">
    <!-- name="Vía Complutense" -->
    <tazSource id="91348386#6" weight="0">
    <tazSink id="91348386#6" weight="0">
    <!-- name="Calle Río Cañamares" -->
    <tazSource id="-32900459#1" weight="0">
    <tazSink id="-32900459#1" weight="0">
    <!-- name="Calle de Andrés Saborit" -->
    <tazSource id="53161690#0" weight="0">
    <tazSink id="53161690#0" weight="0">
    <!-- name="Calle de Andrés Saborit" -->
    <tazSource id="53161690#1" weight="0">
    <tazSink id="53161690#1" weight="0">
    <!-- name="Plaza de las Siete Esquinas" -->
    <tazSource id="-192156583#0" weight="0">
    <tazSink id="-192156583#0" weight="0">
    <!-- name="Calle de San Julián" -->
    <tazSource id="28343728#4" weight="0">
    <tazSink id="28343728#4" weight="0">
    <!-- name="" -->
    <tazSource id="-394231498#0" weight="0">
    <tazSink id="-394231498#0" weight="0">
    <!-- name="Calle Santa Úrsula" -->
    <tazSource id="192156455" weight="0">
    <tazSink id="192156455" weight="0">
    <!-- name="" -->
    <tazSource id="394231495" weight="0">
    <tazSink id="394231495" weight="0">
    <!-- name="" -->
    <tazSource id="394231496" weight="0">
    <tazSink id="394231496" weight="0">
    <!-- name="" -->
    <tazSource id="394231497" weight="0">
    <tazSink id="394231497" weight="0">
    <!-- name="Calle Trinidad" -->
    <tazSource id="408961940" weight="0">
    <tazSink id="408961940" weight="0">
    <!-- name="Calle Tomás Merino" -->
    <tazSource id="36249924" weight="0">
    <tazSink id="36249924" weight="0">
    <!-- name="Paseo de los Curas" -->
    <tazSource id="-422507344#3" weight="0">
    <tazSink id="-422507344#3" weight="0">
    <!-- name="Calle Sevilla" -->
    <tazSource id="156663588" weight="0">
    <tazSink id="156663588" weight="0">
    <!-- name="" -->
    <tazSource id="-32402914" weight="0">
    <tazSink id="-32402914" weight="0">
    <!-- name="Paseo de la Alameda" -->
    <tazSource id="357265153#3" weight="0">
    <tazSink id="357265153#3" weight="0">
    <!-- name="Calle Cerrajeros" -->
    <tazSource id="32403159#0" weight="0">
    <tazSink id="32403159#0" weight="0">
    <!-- name="Calle Bellavista" -->
    <tazSource id="158349115" weight="0">
    <tazSink id="158349115" weight="0">
    <!-- name="" -->
    <tazSource id="256287033" weight="0">
    <tazSink id="256287033" weight="0">
    <!-- name="Vía Complutense" -->
    <tazSource id="75117902#1" weight="0">
    <tazSink id="75117902#1" weight="0">
    <!-- name="Calle del Empecinado" -->
    <tazSource id="-32401945#1" weight="0">
    <tazSink id="-32401945#1" weight="0">
    <!-- name="Paseo de los Curas" -->
    <tazSource id="-422507344#2" weight="0">
    <tazSink id="-422507344#2" weight="0">
    <!-- name="Ronda del Henares" -->
    <tazSource id="227354784#3" weight="0">
    <tazSink id="227354784#3" weight="0">
    <!-- name="Calle Río Ebro" -->
    <tazSource id="32900452" weight="0">
    <tazSink id="32900452" weight="0">
    <!-- name="Calle Río Miño" -->
    <tazSource id="-32900443" weight="0">
    <tazSink id="-32900443" weight="0">
    <!-- name="Calle Caz" -->
    <tazSource id="23904766#2" weight="0">
    <tazSink id="23904766#2" weight="0">
    <!-- name="Calle Caz" -->
    <tazSource id="23904766#3" weight="0">
    <tazSink id="23904766#3" weight="0">
    <!-- name="Calle Caz" -->
    <tazSource id="23904766#0" weight="0">
    <tazSink id="23904766#0" weight="0">
    <!-- name="Calle Caz" -->
    <tazSource id="23904766#1" weight="0">
    <tazSink id="23904766#1" weight="0">
    <!-- name="Calle Caz" -->
    <tazSource id="23904766#4" weight="0">
    <tazSink id="23904766#4" weight="0">
    <!-- name="Calle de Santiago" -->
    <tazSource id="32403419#3" weight="0">
    <tazSink id="32403419#3" weight="0">
    <!-- name="Calle de Santiago" -->
    <tazSource id="32403419#2" weight="0">
    <tazSink id="32403419#2" weight="0">
    <!-- name="Calle de Santiago" -->
    <tazSource id="32403419#1" weight="0">
    <tazSink id="32403419#1" weight="0">
    <!-- name="Calle de Santiago" -->
    <tazSource id="32403419#0" weight="0">