<?xml version="1.0" encoding="UTF-8"?>

<!-- generated on Thu Feb  9 07:34:34 2017 by SUMO duarouter Version 0.27.1
<?xml version="1.0" encoding="UTF-8"?>

<configuration xmlns:xsi="http://www.w3.org/2001/XMLSchema-instance" xsi:noNamespaceSchemaLocation="http://sumo.dlr.de/xsd/duarouterConfiguration.xsd">

    <input>
        <net-file value="madrid_retiro_L_nomaps_tele60_fulltrafic.net.xml"/>
        <trip-files value="madrid_retiro_L_nomaps_tele60_fulltrafic.trip.xml"/>
    </input>

    <output>
        <output-file value="madrid_retiro_L_nomaps_tele60_fulltrafic.routes.xml"/>
    </output>

    <processing>
        <ignore-errors value="true"/>
        <max-alternatives value="10"/>
        <remove-loops value="true"/>
        <repair value="true"/>
        <repair.from value="true"/>
        <repair.to value="true"/>
    </processing>

    <time>
        <begin value="0"/>
        <end value="3600"/>
    </time>

</configuration>
-->

<routes xmlns:xsi="http://www.w3.org/2001/XMLSchema-instance" xsi:noNamespaceSchemaLocation="http://sumo.dlr.de/xsd/routes_file.xsd">
    <vehicle id="63" depart="0.79" departLane="best" departSpeed="0.00" fromTaz="1000" toTaz="1001">
        <route edges="131450470 44508936#0 44508936#1 4334163#0 4334163#1 44508932#0 44508932#1 43759864#0 7972776#0 7972776#1 7972776#2 7972776#3 7972776#4 7972776#5 7972776#6 23573546#0 23573546#1 23573546#2 23573546#3 23573546#4 23573546#5 23573546#6 23573546#7 4526341#9 4526341#10"/>
    </vehicle>
    <vehicle id="9049" depart="4.89" departLane="best" departSpeed="0.00" fromTaz="1004" toTaz="1002">
        <route edges="7972771#2 4353019#0 4353019#1 4353019#2 4353019#3 14567386#2 14567386#3 14567386#4 14567386#5 14567386#6 23573546#3 23573546#4 23573546#5 23573546#6 23573546#7 23573546#8 23573546#9 23573546#10 23573546#11 23573546#12"/>
    </vehicle>
    <vehicle id="7421" depart="5.67" departLane="best" departSpeed="0.00" fromTaz="1003" toTaz="1002">
        <route edges="4526341#1 4526341#2 4526341#3 4526341#4 4526341#5 4526341#6 4526341#7 4526341#8 23573546#8 23573546#9 23573546#10 23573546#11 23573546#12 -44572475#2 -44572475#1 -44572475#0 -4688562#2 -4688562#1 -4688562#0"/>
    </vehicle>
    <vehicle id="4528" depart="6.04" departLane="best" departSpeed="0.00" fromTaz="1002" toTaz="1001">
        <route edges="-44572475#0 44572474#0 44572474#1 229826287 4353021#0 4353021#1 4353021#2 4353021#3 4353021#4 14567386#6 14567386#7 14567386#8 14567386#9"/>
    </vehicle>
    <vehicle id="9006" depart="7.04" departLane="best" departSpeed="0.00" fromTaz="1004" toTaz="1002">
        <route edges="7972771#2 4353019#0 4353019#1 4353019#2 4353019#3 14567386#2 14567386#3 14567386#4 14567386#5 14567386#6 23573546#3 23573546#4 23573546#5 23573546#6 23573546#7 23573546#8 23573546#9 23573546#10 23573546#11 23573546#12 -44572475#2 -44572475#1 -44572475#0 -4688562#2 -4688562#1 -4688562#0 4078618#0"/>
    </vehicle>
    <vehicle id="3062" depart="7.36" departLane="best" departSpeed="0.00" fromTaz="1001" toTaz="1003">
        <route edges="14567386#9 198644581#0 198644581#1 109462899#0 109462899#1 109462887#0 109462887#1 109462891#0 109462891#1 109462891#2 109462891#3 109462891#4 29975021#0 29975021#1 4526341#2"/>
    </vehicle>
    <vehicle id="5461" depart="7.63" departLane="best" departSpeed="0.00" fromTaz="1002" toTaz="1003">
        <route edges="44572476 -44572475#2 -44572475#1 -44572475#0 44572474#0 44572474#1 29974989#0 104864841 29975021#0 29975021#1"/>
    </vehicle>
    <vehicle id="7080" depart="9.39" departLane="best" departSpeed="0.00" fromTaz="1003" toTaz="1002">
        <route edges="425034965#3 179267061#0 179267061#1 -44572474#1 -44572474#0 -44572472"/>
    </vehicle>
    <vehicle id="2253" depart="10.87" departLane="best" departSpeed="0.00" fromTaz="1001" toTaz="1000">
        <route edges="-109462899#1 -109462899#0 -198644581#1 -198644581#0 -109462894#2 -109462894#1 -109462894#0 4261173#0 4261173#1 334731364#0 334731364#1 334731364#2 334731364#3 131450470 44508936#0 44508936#1 4291303#0 4291303#1"/>
    </vehicle>
    <vehicle id="3018" depart="11.00" departLane="best" departSpeed="0.00" fromTaz="1001" toTaz="1003">
        <route edges="109462899#0 109462899#1 109462887#0 109462887#1 109462895 109462900#0 109462900#1 137216215#0 137216215#1 44572476 -44572475#2 -44572475#1 -44572475#0 -4688562#2 -4688562#1 -4688562#0 4078618#0 4078618#1 425034965#0 425034965#1 425034965#2 425034965#3"/>
    </vehicle>
    <vehicle id="8850" depart="11.03" departLane="best" departSpeed="0.00" fromTaz="1004" toTaz="1001">
        <route edges="4353019#1 4353019#2 4353019#3 14567386#2 14567386#3 14567386#4 14567386#5 14567386#6 14567386#7 14567386#8 14567386#9 -109462894#2 -109462894#1 -109462894#0"/>
    </vehicle>
    <vehicle id="2651" depart="11.33" departLane="best" departSpeed="0.00" fromTaz="1001" toTaz="1002">
        <route edges="109462894#1 109462894#2 198644581#0 198644581#1 109462899#0 109462899#1 109462887#0 109462887#1 109462895 109462900#0 109462900#1 137216215#0 137216215#1 44572476 -44572475#2"/>
    </vehicle>
    <vehicle id="4238" depart="11.71" departLane="best" departSpeed="0.00" fromTaz="1002" toTaz="1000">
        <route edges="137216216#0 137216216#1 137216216#2 137216216#3 137519639 -137519639 -109462886 -109462900#1 -109462900#0 -109462895 -109462887#1 -109462887#0 -109462899#1 -109462899#0 -198644581#1 -198644581#0 -109462894#2 -109462894#1 -109462894#0 4261173#0 4261173#1 334731364#0 334731364#1 334731364#2 334731364#3 131450470 44508936#0 44508936#1 4334163#0 4334163#1 7972177"/>
    </vehicle>
    <vehicle id="6503" depart="11.86" departLane="best" departSpeed="0.00" fromTaz="1003" toTaz="1001">
        <route edges="425034965#2 425034965#3 179267058 321307759 29975021#0 321307751 4526341#3 4526341#4 4526341#5 4526341#6 4526341#7 4526341#8 4526341#9 4526341#10 -109462899#1 -109462899#0 -198644581#1 -198644581#0 -109462894#2 -109462894#1 -109462894#0 4261173#0"/>
    </vehicle>
    <vehicle id="4758" depart="12.17" departLane="best" departSpeed="0.00" fromTaz="1002" toTaz="1001">
        <route edges="44572475#0 44572475#1 44572475#2 137206573 137216216#0 137216216#1 137216216#2 137216216#3 137519639 -137519639 -109462886 -109462900#1 -109462900#0 -109462895 -109462887#1 -109462887#0 -109462899#1 -109462899#0 -198644581#1"/>
    </vehicle>
    <vehicle id="1580" depart="14.07" departLane="best" departSpeed="0.00" fromTaz="1000" toTaz="1004">
        <route edges="334731365#2 334731365#3 7972776#0 7972776#1 7972776#2 7972776#3 7972776#4 7972776#5 7972776#6 112538800#3 112538800#4 112538800#5 112538800#6 112538800#7 112538800#8"/>
    </vehicle>
    <vehicle id="6900" depart="15.55" departLane="best" departSpeed="0.00" fromTaz="1003" toTaz="1001">
        <route edges="4526341#2 4526341#3 4526341#4 4353021#3 4353021#4 14567386#6 14567386#7 14567386#8 14567386#9"/>
    </vehicle>
    <vehicle id="6848" depart="15.74" departLane="best" departSpeed="0.00" fromTaz="1003" toTaz="1001">
        <route edges="179267058 321307759 29975021#0 321307751 4526341#3 4526341#4 4526341#5 4526341#6 4526341#7 4526341#8 4526341#9 4526341#10 -109462899#1 -109462899#0 -198644581#1 198644581#1 109462896#0"/>
    </vehicle>
    <vehicle id="2549" depart="15.90" departLane="best" departSpeed="0.00" fromTaz="1001" toTaz="1002">
        <route edges="109462894#1 109462894#2 198644581#0 198644581#1 109462899#0 109462899#1 109462887#0 109462887#1 109462895 109462900#0 109462900#1 137216215#0 137216215#1 44572476 -44572475#2 -44572475#1 -44572475#0 -4688562#2"/>
    </vehicle>
    <vehicle id="1350" depart="16.08" departLane="best" departSpeed="0.00" fromTaz="1000" toTaz="1003">
        <route edges="43759863 164369266#0 164369266#1 112538817#0 112538817#1 112538817#2 112538817#3 44737270 334731365#0 334731365#1 334731365#2 334731365#3 7972776#0 7972776#1 7972776#2 7972776#3 7972776#4 7972776#5 7972776#6 23573546#0 23573546#1 23573546#2 23573546#3 23573546#4 23573546#5 23573546#6 23573546#7 23573546#8 23573546#9 23573546#10 23573546#11 23573546#12 -44572475#2 -44572475#1 -44572475#0 44572474#0 44572474#1 29974989#0 104864841"/>
    </vehicle>
    <vehicle id="3874" depart="16.08" departLane="best" departSpeed="0.00" fromTaz="1001" toTaz="1004">
        <route edges="-137519639 -109462886 -109462900#1 109462900#1 137216215#0 137216215#1 44572476 -44572475#2 -44572475#1 -44572475#0 44572474#0 44572474#1 229826287 4353021#0 4353021#1 4353021#2 4353021#3 4353021#4 4353021#5 4353021#6 112538800#5 112538800#6 112538800#7 112538800#8 4353019#0"/>
    </vehicle>
    <vehicle id="88" depart="16.72" departLane="best" departSpeed="0.00" fromTaz="1000" toTaz="1001">
        <route edges="112538811#1 44508936#0 44508936#1 4334163#0 4334163#1 44508932#0 44508932#1 43759864#0 43759864#1 131451859 4261174 335735810#0 335735810#1 335735810#2 335735810#3 109462894#0 109462894#1 109462894#2 198644581#0 198644581#1 109462896#0"/>
    </vehicle>
    <vehicle id="8422" depart="18.10" departLane="best" departSpeed="0.00" fromTaz="1004" toTaz="1000">
        <route edges="4353019#0 4353019#1 4353019#2 4353019#3 14567386#2 14567386#3 14567386#4 14567386#5 4353021#5 4353021#6 4353021#7 4353021#8 4353021#9 4353021#10 334731365#0 334731365#1 334731365#2"/>
    </vehicle>
    <vehicle id="4614" depart="18.30" departLane="best" departSpeed="0.00" fromTaz="1002" toTaz="1001">
        <route edges="44572475#1 44572475#2 137206573 137216216#0 137216216#1 137216216#2 137216216#3 137519639 -137519639 -109462886 -109462900#1 -109462900#0 -109462895 -109462887#1 -109462887#0 -109462899#1 -109462899#0 -198644581#1 -198644581#0 -109462894#2 -109462894#1 -109462894#0"/>
    </vehicle>
    <vehicle id="9" depart="18.39" departLane="best" departSpeed="0.00" fromTaz="1000" toTaz="1001">
        <route edges="43759864#0 7972776#0 7972776#1 7972776#2 7972776#3 7972776#4 7972776#5 7972776#6 23573546#0 23573546#1 23573546#2 23573546#3 23573546#4 23573546#5 23573546#6 23573546#7 4526341#9 4526341#10 -109462899#1"/>
    </vehicle>
    <vehicle id="4638" depart="18.64" departLane="best" departSpeed="0.00" fromTaz="1002" toTaz="1001">
        <route edges="44572475#0 44572475#1 44572475#2 137206573 137216216#0 137216216#1 137216216#2 137216216#3 137519639 -137519639 -109462886 -109462900#1 -109462900#0 -109462895 -109462887#1 -109462887#0 -109462899#1 -109462899#0 -198644581#1"/>
    </vehicle>
    <vehicle id="3461" depart="18.86" departLane="best" departSpeed="0.00" fromTaz="1001" toTaz="1003">
        <route edges="112538800#0 112538800#1 112538800#2 23573546#0 23573546#1 23573546#2 23573546#3 23573546#4 23573546#5 23573546#6 23573546#7 23573546#8 23573546#9 109462891#2 109462891#3 109462891#4 29975021#0"/>
    </vehicle>
    <vehicle id="749" depart="18.97" departLane="best" departSpeed="0.00" fromTaz="1000" toTaz="1002">
        <route edges="164369266#1 112538817#0 112538817#1 112538817#2 112538817#3 44737270 334731365#0 334731365#1 334731365#2 334731365#3 7972776#0 7972776#1 7972776#2 7972776#3 7972776#4 7972776#5 7972776#6 23573546#0 23573546#1 23573546#2 23573546#3 23573546#4 23573546#5 23573546#6 23573546#7 23573546#8 23573546#9 23573546#10 23573546#11 23573546#12"/>
    </vehicle>
    <vehicle id="9149" depart="19.12" departLane="best" departSpeed="0.00" fromTaz="1004" toTaz="1002">
        <route edges="112538800#8 4353019#0 4353019#1 4353019#2 4353019#3 14567386#2 14567386#3 14567386#4 14567386#5 14567386#6 23573546#3 23573546#4 23573546#5 23573546#6 23573546#7 23573546#8 23573546#9 23573546#10 23573546#11 23573546#12 -44572475#2 -44572475#1"/>
    </vehicle>
    <vehicle id="412" depart="19.61" departLane="best" departSpeed="0.00" fromTaz="1000" toTaz="1001">
        <route edges="112538817#0 112538817#1 112538817#2 112538817#3 44737270 334731365#0 334731365#1 334731365#2 334731365#3 7972776#0 7972776#1 7972776#2 7972776#3 7972776#4 7972776#5 7972776#6 23573546#0 23573546#1 23573546#2 23573546#3 23573546#4 23573546#5 23573546#6 23573546#7 23573546#8 23573546#9 23573546#10 4526390#1 4526390#2 4526390#3 -109462895"/>
    </vehicle>
    <vehicle id="4910" depart="19.62" departLane="best" departSpeed="0.00" fromTaz="1002" toTaz="1001">
        <route edges="4078618#0 4078618#1 425034964 229826287 4353021#0 4353021#1 4353021#2 4526341#5 4526341#6 4526341#7 4526341#8 4526341#9 4526341#10 -109462899#1 -109462899#0 -198644581#1 -198644581#0 -109462894#2 -109462894#1 -109462894#0"/>
    </vehicle>
    <vehicle id="8770" depart="20.38" departLane="best" departSpeed="0.00" fromTaz="1004" toTaz="1001">
        <route edges="7972771#2 4353019#0 4353019#1 4353019#2 4353019#3 14567386#2 14567386#3 14567386#4 14567386#5 14567386#6 23573546#3 23573546#4 23573546#5 23573546#6 23573546#7 23573546#8 23573546#9 23573546#10 23573546#11 23573546#12 137206573 137216216#0 137216216#1 137216216#2 137216216#3 137519639 -137519639 -109462886"/>
    </vehicle>
    <vehicle id="4636" depart="21.21" departLane="best" departSpeed="0.00" fromTaz="1002" toTaz="1001">
        <route edges="44572474#0 44572474#1 229826287 4526390#0 4526390#1 4526390#2 4526390#3 109462900#0"/>
    </vehicle>
    <vehicle id="7948" depart="21.49" departLane="best" departSpeed="0.00" fromTaz="1003" toTaz="1004">
        <route edges="425034965#2 425034965#3 179267058 321307759 29975021#0 321307751 4526341#3 4526341#4 4353021#3 4353021#4 4353021#5 4353021#6 112538800#5 112538800#6 112538800#7 112538800#8 112538800#9 112538800#10"/>
    </vehicle>
    <vehicle id="4650" depart="22.42" departLane="best" departSpeed="0.00" fromTaz="1002" toTaz="1001">
        <route edges="44572475#1 44572475#2 137206573 137216216#0 137216216#1 137216216#2 137216216#3 137519639 -137519639 -109462886 -109462900#1 -109462900#0 -109462895 -109462887#1"/>
    </vehicle>
    <vehicle id="8037" depart="22.68" departLane="best" departSpeed="0.00" fromTaz="1004" toTaz="1000">
        <route edges="4353019#0 4353019#1 4353019#2 4353019#3 14567386#2 14567386#3 14567386#4 14567386#5 4353021#5 4353021#6 4353021#7 4353021#8 4353021#9 4353021#10 334731365#0 334731365#1 334731365#2 334731365#3 7972776#0"/>
    </vehicle>
    <vehicle id="1396" depart="22.82" departLane="best" departSpeed="0.00" fromTaz="1000" toTaz="1003">
        <route edges="43759863 164369266#0 164369266#1 112538817#0 112538817#1 112538817#2 112538817#3 44737270 334731365#0 334731365#1 334731365#2 334731365#3 7972776#0 7972776#1 7972776#2 7972776#3 7972776#4 7972776#5 7972776#6 23573546#0 23573546#1 23573546#2 23573546#3 23573546#4 23573546#5 23573546#6 23573546#7 23573546#8 23573546#9 23573546#10 23573546#11 23573546#12 -44572475#2 -44572475#1 -44572475#0 -4688562#2 -4688562#1 -4688562#0 4078618#0 4078618#1 425034965#0 425034965#1 425034965#2 425034965#3 179267058"/>
    </vehicle>
    <vehicle id="391" depart="23.05" departLane="best" departSpeed="0.00" fromTaz="1000" toTaz="1001">
        <route edges="334731364#3 131450470 44508936#0 44508936#1 4334163#0 4334163#1 44508932#0 44508932#1 43759864#0 7972776#0 7972776#1 7972776#2 7972776#3 7972776#4 7972776#5 7972776#6 23573546#0 23573546#1 23573546#2 23573546#3 23573546#4 23573546#5 23573546#6 23573546#7 4526341#9 4526341#10 -109462899#1"/>
    </vehicle>
    <vehicle id="8388" depart="23.34" departLane="best" departSpeed="0.00" fromTaz="1004" toTaz="1000">
        <route edges="112538800#8 4353019#0 4353019#1 4353019#2 4353019#3 14567386#2 14567386#3 14567386#4 14567386#5 4353021#5 4353021#6 4353021#7 4353021#8 4353021#9 44737268#0 44737268#1 44737268#2 44737268#3 44737268#4 131451859 4261174 335735810#0 335735810#1"/>
    </vehicle>
    <vehicle id="4287" depart="23.87" departLane="best" departSpeed="0.00" fromTaz="1002" toTaz="1000">
        <route edges="4688562#2 44572475#0 44572475#1 44572475#2 137206573 137216216#0 137216216#1 137216216#2 137216216#3 137519639 -137519639 -109462886 -109462900#1 -109462900#0 -109462895 -109462887#1 -109462887#0 -109462899#1 -109462899#0 -198644581#1 -198644581#0 -109462894#2 -109462894#1 -109462894#0 4261173#0 4261173#1 334731364#0 334731364#1 334731364#2 334731364#3 131450470 44508936#0 44508936#1 4334163#0 4334163#1 44508932#0 44508932#1"/>
    </vehicle>
    <vehicle id="6885" depart="24.09" departLane="best" departSpeed="0.00" fromTaz="1003" toTaz="1001">
        <route edges="4526341#2 4526341#3 4526341#4 4526341#5 4526341#6 4526341#7 4526341#8 4526341#9 4526341#10 109462887#0 109462887#1 109462891#0"/>
    </vehicle>
    <vehicle id="7003" depart="24.19" departLane="best" departSpeed="0.00" fromTaz="1003" toTaz="1002">
        <route edges="425034965#3 179267061#0 179267061#1 -44572474#1 -44572474#0 -4688562#2 4688562#2 44572475#0 44572475#1 44572475#2 44572477"/>
    </vehicle>
    <vehicle id="9768" depart="25.12" departLane="best" departSpeed="0.00" fromTaz="1004" toTaz="1003">
        <route edges="112538800#8 4353019#0 4353019#1 4353019#2 4353019#3 14567386#2 14567386#3 14567386#4 14567386#5 14567386#6 23573546#3 23573546#4 23573546#5 23573546#6 23573546#7 23573546#8 23573546#9 23573546#10 23573546#11 23573546#12 -44572475#2 -44572475#1 -44572475#0 44572474#0 44572474#1 29974989#0 29974989#1 321307759"/>
    </vehicle>
    <vehicle id="6843" depart="25.34" departLane="best" departSpeed="0.00" fromTaz="1003" toTaz="1001">
        <route edges="29975021#1 4526341#2 4526341#3 4526341#4 4526341#5 4526341#6 4526341#7 4526341#8 4526341#9 4526341#10 -109462899#1 -109462899#0 -198644581#1 -198644581#0 -109462894#2 -109462894#1 -109462894#0"/>
    </vehicle>
    <vehicle id="3799" depart="25.71" departLane="best" departSpeed="0.00" fromTaz="1001" toTaz="1004">
        <route edges="-109462899#1 -109462899#0 -198644581#1 198644581#1 109462896#0 109462896#1 109462896#2 109462896#3 4353021#4 4353021#5 4353021#6 112538800#5 112538800#6 112538800#7 112538800#8 4353019#0 4353019#1"/>
    </vehicle>
    <vehicle id="5350" depart="26.95" departLane="best" departSpeed="0.00" fromTaz="1002" toTaz="1003">
        <route edges="-44572475#1 -44572475#0 44572474#0 44572474#1 29974989#0 104864841 29975021#0 29975021#1"/>
    </vehicle>
    <vehicle id="3434" depart="27.26" departLane="best" departSpeed="0.00" fromTaz="1001" toTaz="1003">
        <route edges="109462900#0 109462900#1 137216215#0 137216215#1 44572476 -44572475#2 -44572475#1 -44572475#0 -4688562#2 -4688562#1 -4688562#0 4078618#0 4078618#1 425034965#0 425034965#1 425034965#2 425034965#3 179267061#0"/>
    </vehicle>
    <vehicle id="6390" depart="27.62" departLane="best" departSpeed="0.00" fromTaz="1003" toTaz="1000">
        <route edges="321307751 4526341#3 4526341#4 4353021#3 4353021#4 4353021#5 4353021#6 4353021#7 4353021#8 4353021#9 44737268#0 44737268#1 44737268#2 44737268#3 44737268#4 131451859 4261174"/>
    </vehicle>
    <vehicle id="8653" depart="27.79" departLane="best" departSpeed="0.00" fromTaz="1004" toTaz="1001">
        <route edges="7972771#2 4353019#0 4353019#1 4353019#2 4353019#3 14567386#2 14567386#3 14567386#4 14567386#5 14567386#6 23573546#3 23573546#4 23573546#5 23573546#6 23573546#7 4526341#9 4526341#10"/>
    </vehicle>
    <vehicle id="5465" depart="28.04" departLane="best" departSpeed="0.00" fromTaz="1002" toTaz="1003">
        <route edges="-4688562#1 -4688562#0 4078618#0 4078618#1 425034965#0 425034965#1 425034965#2 425034965#3 179267058 321307759 29975021#0 29975021#1 29975021#2"/>
    </vehicle>
    <vehicle id="7042" depart="28.74" departLane="best" departSpeed="0.00" fromTaz="1003" toTaz="1002">
        <route edges="29975021#1 4526341#2 4526341#3 4526341#4 4526341#5 4526341#6 4526341#7 4526341#8 23573546#8 23573546#9 23573546#10 23573546#11 23573546#12 -44572475#2 -44572475#1 -44572475#0 -4688562#2 -4688562#1 -4688562#0 -4812341 185181407#0"/>
    </vehicle>
    <vehicle id="5413" depart="29.39" departLane="best" departSpeed="0.00" fromTaz="1002" toTaz="1003">
        <route edges="-44572474#0 -4688562#2 -4688562#1 -4688562#0 4078618#0 4078618#1 425034965#0 425034965#1 425034965#2 425034965#3 179267058"/>
    </vehicle>
    <vehicle id="3555" depart="29.89" departLane="best" departSpeed="0.00" fromTaz="1001" toTaz="1004">
        <route edges="109462891#0 109462891#1 109462891#2 109462891#3 4353021#1 4353021#2 4353021#3 4353021#4 4353021#5 4353021#6 112538800#5 112538800#6 112538800#7 112538800#8"/>
    </vehicle>
    <vehicle id="2524" depart="30.03" departLane="best" departSpeed="0.00" fromTaz="1001" toTaz="1002">
        <route edges="43405582 109462894#0 109462894#1 109462894#2 198644581#0 198644581#1 109462899#0 109462899#1 109462887#0 109462887#1 109462895 109462900#0 109462900#1 137216215#0 137216215#1 44572476 -44572475#2 -44572475#1 -44572475#0 44572474#0"/>
    </vehicle>
    <vehicle id="9009" depart="30.29" departLane="best" departSpeed="0.00" fromTaz="1004" toTaz="1002">
        <route edges="112538800#8 4353019#0 4353019#1 4353019#2 4353019#3 14567386#2 14567386#3 14567386#4 14567386#5 14567386#6 23573546#3 23573546#4 23573546#5 23573546#6 23573546#7 23573546#8 23573546#9 23573546#10 23573546#11 23573546#12 -44572475#2 -44572475#1 -44572475#0 -4688562#2 -4688562#1 -4688562#0"/>
    </vehicle>
    <vehicle id="6538" depart="31.39" departLane="best" departSpeed="0.00" fromTaz="1003" toTaz="1001">
        <route edges="179267058 321307759 29975021#0 321307751 4526341#3 4526341#4 4526341#5 4526341#6 4526341#7 4526341#8 4526341#9 4526341#10 -109462899#1 -109462899#0 -198644581#1 -198644581#0"/>
    </vehicle>
    <vehicle id="1386" depart="32.14" departLane="best" departSpeed="0.00" fromTaz="1000" toTaz="1003">
        <route edges="44508934 131450470 44508936#0 44508936#1 4334163#0 4334163#1 44508932#0 44508932#1 43759864#0 7972776#0 7972776#1 7972776#2 7972776#3 7972776#4 7972776#5 7972776#6 23573546#0 23573546#1 23573546#2 23573546#3 23573546#4 23573546#5 23573546#6 23573546#7 23573546#8 23573546#9 109462891#2 109462891#3 109462891#4 29975021#0 321307751"/>
    </vehicle>
    <vehicle id="1751" depart="35.00" departLane="best" departSpeed="0.00" fromTaz="1000" toTaz="1004">
        <route edges="7972776#0 7972776#1 7972776#2 7972776#3 7972776#4 7972776#5 7972776#6 112538800#3 112538800#4 112538800#5 112538800#6 112538800#7 112538800#8 112538800#9"/>
    </vehicle>
    <vehicle id="6475" depart="35.30" departLane="best" departSpeed="0.00" fromTaz="1003" toTaz="1000">
        <route edges="29974989#1 321307759 29975021#0 321307751 4526341#3 4526341#4 4526341#5 4526341#6 4526341#7 4526341#8 4526341#9 4526341#10 -109462899#1 -109462899#0 -198644581#1 -198644581#0 -109462894#2 -109462894#1 -109462894#0 4261173#0 4261173#1 334731364#0 334731364#1 334731364#2 334731364#3 131450470 44508936#0 44508936#1 4334163#0 4334163#1 44508932#0 44508932#1 43759864#0"/>
    </vehicle>
    <vehicle id="4852" depart="35.81" departLane="best" departSpeed="0.00" fromTaz="1002" toTaz="1001">
        <route edges="-4688562#0 4078618#0 4078618#1 425034964 -44572474#1 -44572474#0 -4688562#2 4688562#2 44572475#0 44572475#1 44572475#2 137206573 137216216#0 137216216#1 137216216#2 137216216#3 137519645"/>
    </vehicle>
    <vehicle id="3009" depart="36.22" departLane="best" departSpeed="0.00" fromTaz="1001" toTaz="1003">
        <route edges="4526390#3 109462900#0 109462900#1 137216215#0 137216215#1 44572476 -44572475#2 -44572475#1 -44572475#0 -4688562#2 -4688562#1 -4688562#0 4078618#0 4078618#1 425034965#0 425034965#1 425034965#2 425034965#3"/>
    </vehicle>
    <vehicle id="1288" depart="36.35" departLane="best" departSpeed="0.00" fromTaz="1000" toTaz="1003">
        <route edges="44508935 334731364#3 131450470 44508936#0 44508936#1 4334163#0 4334163#1 44508932#0 44508932#1 43759864#0 7972776#0 7972776#1 7972776#2 7972776#3 7972776#4 7972776#5 7972776#6 23573546#0 23573546#1 23573546#2 23573546#3 23573546#4 23573546#5 23573546#6 23573546#7 23573546#8 23573546#9 23573546#10 23573546#11 23573546#12 -44572475#2 -44572475#1 -44572475#0 44572474#0 44572474#1 29974989#0 29974989#1"/>
    </vehicle>
    <vehicle id="6357" depart="36.52" departLane="best" departSpeed="0.00" fromTaz="1003" toTaz="1000">
        <route edges="321307751 4526341#3 4526341#4 4353021#3 4353021#4 4353021#5 4353021#6 4353021#7 4353021#8 4353021#9 44737268#0 44737268#1 44737268#2 44737268#3 44737268#4 131451859 334731366"/>
    </vehicle>
    <vehicle id="2367" depart="37.22" departLane="best" departSpeed="0.00" fromTaz="1001" toTaz="1000">
        <route edges="-198644581#0 -109462894#2 -109462894#1 -109462894#0 4261173#0 4261173#1 334731364#0 334731364#1 334731364#2 334731364#3 131450470 44508936#0 44508936#1 4334163#0 4334163#1 44508932#0 44508932#1 43759864#0 43759864#1 131451859 4261174 335735810#0"/>
    </vehicle>
    <vehicle id="2977" depart="37.59" departLane="best" departSpeed="0.00" fromTaz="1001" toTaz="1002">
        <route edges="112538800#0 112538800#1 112538800#2 23573546#0 23573546#1 23573546#2 23573546#3 23573546#4 23573546#5 23573546#6 23573546#7 23573546#8 23573546#9 23573546#10 23573546#11 23573546#12"/>
    </vehicle>
    <vehicle id="7272" depart="38.43" departLane="best" departSpeed="0.00" fromTaz="1003" toTaz="1002">
        <route edges="29975021#0 321307751 4526341#3 4526341#4 4526341#5 4526341#6 4526341#7 4526341#8 23573546#8 23573546#9 23573546#10 23573546#11 23573546#12 -44572475#2"/>
    </vehicle>
    <vehicle id="8489" depart="38.55" departLane="best" departSpeed="0.00" fromTaz="1004" toTaz="1000">
        <route edges="7972771#2 4353019#0 4353019#1 4353019#2 4353019#3 14567386#2 14567386#3 14567386#4 14567386#5 14567386#6 14567386#7 14567386#8 14567386#9 -109462894#2 -109462894#1 -109462894#0 4261173#0 4261173#1 334731364#0 334731364#1 334731364#2 334731364#3 131450470 44508936#0 44508936#1 4334163#0 4334163#1 44508932#0 44508932#1 112538817#0"/>
    </vehicle>
    <vehicle id="4341" depart="38.76" departLane="best" departSpeed="0.00" fromTaz="1002" toTaz="1000">
        <route edges="44572472 44572474#0 44572474#1 229826287 4353021#0 4353021#1 4353021#2 4353021#3 4353021#4 4353021#5 4353021#6 4353021#7 4353021#8 4353021#9 44737268#0 44737268#1 44737268#2"/>
    </vehicle>
    <vehicle id="142" depart="39.03" departLane="best" departSpeed="0.00" fromTaz="1000" toTaz="1001">
        <route edges="112538817#0 112538817#1 112538817#2 112538817#3 44737270 334731365#0 334731365#1 334731365#2 334731365#3 43759864#1 131451859 4261174 335735810#0 335735810#1 335735810#2 335735810#3 109462894#0 109462894#1 109462894#2 198644581#0 198644581#1"/>
    </vehicle>
    <vehicle id="8969" depart="40.02" departLane="best" departSpeed="0.00" fromTaz="1004" toTaz="1001">
        <route edges="112538800#8 4353019#0 4353019#1 4353019#2 4353019#3 14567386#2 14567386#3 14567386#4 14567386#5 14567386#6 14567386#7 14567386#8 14567386#9 198644581#0 198644581#1 109462899#0"/>
    </vehicle>
    <vehicle id="3624" depart="42.31" departLane="best" departSpeed="0.00" fromTaz="1001" toTaz="1004">
        <route edges="109462887#1 109462891#0 109462891#1 109462891#2 109462891#3 4353021#1 4353021#2 4353021#3 4353021#4 4353021#5 4353021#6 112538800#5 112538800#6 112538800#7 112538800#8 112538800#9"/>
    </vehicle>
    <vehicle id="3576" depart="42.40" departLane="best" departSpeed="0.00" fromTaz="1001" toTaz="1004">
        <route edges="-109462894#0 4261173#0 4261173#1 334731364#0 334731364#1 334731364#2 334731364#3 131450470 44508936#0 44508936#1 4334163#0 4334163#1 44508932#0 44508932#1 43759864#0 7972776#0 7972776#1 7972776#2 7972776#3 7972776#4 7972776#5 7972776#6 112538800#3 112538800#4 112538800#5 112538800#6 112538800#7 112538800#8"/>
    </vehicle>
    <vehicle id="3682" depart="42.53" departLane="best" departSpeed="0.00" fromTaz="1001" toTaz="1004">
        <route edges="-109462894#1 -109462894#0 4261173#0 4261173#1 334731364#0 334731364#1 334731364#2 334731364#3 131450470 44508936#0 44508936#1 4334163#0 4334163#1 44508932#0 44508932#1 43759864#0 7972776#0 7972776#1 7972776#2 7972776#3 7972776#4 7972776#5 7972776#6 112538800#3 112538800#4 112538800#5 112538800#6 112538800#7 112538800#8 4353019#0 4353019#1"/>
    </vehicle>
    <vehicle id="4730" depart="43.31" departLane="best" departSpeed="0.00" fromTaz="1002" toTaz="1001">
        <route edges="137216216#0 137216216#1 137216216#2 137216216#3 137519639 -137519639 -109462886 -109462900#1 -109462900#0"/>
    </vehicle>
    <vehicle id="7986" depart="43.53" departLane="best" departSpeed="0.00" fromTaz="1003" toTaz="1004">
        <route edges="425034965#3 179267058 321307759 29975021#0 321307751 4526341#3 4526341#4 4353021#3 4353021#4 4353021#5 4353021#6 112538800#5 112538800#6 112538800#7 112538800#8 4353019#0"/>
    </vehicle>
    <vehicle id="6347" depart="44.44" departLane="best" departSpeed="0.00" fromTaz="1003" toTaz="1000">
        <route edges="425034965#2 425034965#3 179267058 321307759 29975021#0 321307751 4526341#3 4526341#4 4526341#5 4526341#6 4526341#7 4526341#8 4526341#9 4526341#10 -109462899#1 -109462899#0 -198644581#1 -198644581#0 -109462894#2 -109462894#1 -109462894#0 4261173#0 4261173#1 334731364#0 334731364#1 334731364#2 417038678"/>
    </vehicle>
    <vehicle id="4702" depart="46.74" departLane="best" departSpeed="0.00" fromTaz="1002" toTaz="1001">
        <route edges="137206573 137216216#0 137216216#1 137216216#2 137216216#3 137519639 -137519639 -109462886 -109462900#1 -109462900#0 -109462895 -109462887#1 -109462887#0"/>
    </vehicle>
    <vehicle id="571" depart="46.90" departLane="best" departSpeed="0.00" fromTaz="1000" toTaz="1002">
        <route edges="44508932#1 43759864#0 7972776#0 7972776#1 7972776#2 7972776#3 7972776#4 7972776#5 7972776#6 23573546#0 23573546#1 23573546#2 23573546#3 23573546#4 23573546#5 23573546#6 23573546#7 23573546#8 23573546#9 23573546#10 23573546#11 23573546#12 -44572475#2 -44572475#1 -44572475#0"/>
    </vehicle>
    <vehicle id="9249" depart="48.04" departLane="best" departSpeed="0.00" fromTaz="1004" toTaz="1002">