<?xml version="1.0" encoding="UTF-8"?>

<!-- generated on Thu Dec 22 12:57:50 2016 by SUMO netconvert Version 0.27.1
<?xml version="1.0" encoding="UTF-8"?>

<configuration xmlns:xsi="http://www.w3.org/2001/XMLSchema-instance" xsi:noNamespaceSchemaLocation="http://sumo.dlr.de/xsd/netconvertConfiguration.xsd">

    <input>
        <type-files value="netconvert.osm.types.xml"/>
        <osm-files value="../osm/alcalahenares.osm"/>
    </input>

    <output>
        <output-file value="alcalahenares.net.xml"/>
        <plain-output-prefix value="alcalahenares"/>
        <output.street-names value="true"/>
        <output.original-names value="true"/>
    </output>

    <projection>
        <proj.utm value="true"/>
        <proj.plain-geo value="true"/>
    </projection>

    <edge_removal>
        <remove-edges.by-type value="highway.bridleway,highway.cycleway,highway.footway,highway.ford,highway.path,highway.pedestrian,highway.service,highway.stairs,highway.step,highway.steps,highway.track,railway.light_rail,railway.preserved,railway.rail,railway.subway,railway.tram"/>
    </edge_removal>

</configuration>
-->

<connections version="0.27" xmlns:xsi="http://www.w3.org/2001/XMLSchema-instance" xsi:noNamespaceSchemaLocation="http://sumo.dlr.de/xsd/connections_file.xsd">
    <connection from="-100851682" to="-100851688" fromLane="0" toLane="0"/>
    <connection from="-100851682" to="100851682" fromLane="0" toLane="0"/>

    <connection from="-100851688" to="125233797" fromLane="0" toLane="0"/>
    <connection from="-100851688" to="100851688" fromLane="0" toLane="0"/>

    <connection from="-100851690" to="-100851682" fromLane="0" toLane="0"/>
    <connection from="-100851690" to="100851690" fromLane="0" toLane="0"/>

    <connection from="-100851695" to="446182792#1" fromLane="0" toLane="0"/>
    <connection from="-100851695" to="-446182792#0" fromLane="0" toLane="0"/>
    <connection from="-100851695" to="100851695" fromLane="0" toLane="0"/>

    <connection from="-103584157" to="28359604#0" fromLane="0" toLane="0"/>
    <connection from="-103584157" to="103584157" fromLane="0" toLane="0"/>

    <connection from="-103584164" to="103584189#1" fromLane="0" toLane="0"/>
    <connection from="-103584164" to="103584164" fromLane="0" toLane="0"/>

    <connection from="-103584211#0" to="103584214#2" fromLane="0" toLane="0"/>
    <connection from="-103584211#0" to="103584211#0" fromLane="0" toLane="0"/>

    <connection from="-103584211#1" to="-103584211#0" fromLane="0" toLane="0"/>
    <connection from="-103584211#1" to="103584211#1" fromLane="0" toLane="0"/>

    <connection from="-103584211#2" to="-103584211#1" fromLane="0" toLane="0"/>
    <connection from="-103584211#2" to="103584211#2" fromLane="0" toLane="0"/>

    <connection from="-103584211#3" to="-103584211#2" fromLane="0" toLane="0"/>
    <connection from="-103584211#3" to="28359625" fromLane="0" toLane="0"/>
    <connection from="-103584211#3" to="103584211#3" fromLane="0" toLane="0"/>

    <connection from="-103584211#4" to="28359614" fromLane="0" toLane="0"/>
    <connection from="-103584211#4" to="-103584211#3" fromLane="0" toLane="0"/>
    <connection from="-103584211#4" to="103584211#4" fromLane="0" toLane="0"/>

    <connection from="-103584211#5" to="-103584211#4" fromLane="0" toLane="0"/>
    <connection from="-103584211#5" to="103584211#5" fromLane="0" toLane="0"/>

    <connection from="-103584239" to="103584189#2" fromLane="0" toLane="0"/>
    <connection from="-103584239" to="103584239" fromLane="0" toLane="0"/>

    <connection from="-106134323" to="-106134372" fromLane="0" toLane="0"/>
    <connection from="-106134323" to="106134323" fromLane="0" toLane="0"/>

    <connection from="-106134328" to="-106134336" fromLane="0" toLane="0"/>
    <connection from="-106134328" to="106134328" fromLane="0" toLane="0"/>

    <connection from="-106134330#0" to="-106134323" fromLane="0" toLane="0"/>
    <connection from="-106134330#0" to="106134330#0" fromLane="0" toLane="0"/>

    <connection from="-106134330#1" to="-106134330#0" fromLane="0" toLane="0"/>
    <connection from="-106134330#1" to="106134330#1" fromLane="0" toLane="0"/>

    <connection from="-106134332#0" to="-150036343#4" fromLane="0" toLane="0"/>
    <connection from="-106134332#0" to="-106134345#2" fromLane="0" toLane="0"/>
    <connection from="-106134332#0" to="106134332#0" fromLane="0" toLane="0"/>

    <connection from="-106134332#1" to="123484052#0" fromLane="0" toLane="0"/>
    <connection from="-106134332#1" to="-106134332#0" fromLane="0" toLane="0"/>
    <connection from="-106134332#1" to="106134332#1" fromLane="0" toLane="0"/>

    <connection from="-106134332#2" to="-106134332#1" fromLane="0" toLane="0"/>
    <connection from="-106134332#2" to="106134332#2" fromLane="0" toLane="0"/>

    <connection from="-106134336" to="106134397#0" fromLane="0" toLane="0"/>
    <connection from="-106134336" to="106134336" fromLane="0" toLane="0"/>

    <connection from="-106134345#0" to="32906796#1" fromLane="0" toLane="0"/>
    <connection from="-106134345#0" to="-32906796#0" fromLane="0" toLane="0"/>
    <connection from="-106134345#0" to="106134345#0" fromLane="0" toLane="0"/>

    <connection from="-106134345#1" to="-106134345#0" fromLane="0" toLane="0"/>
    <connection from="-106134345#1" to="106134345#1" fromLane="0" toLane="0"/>

    <connection from="-106134345#2" to="-106134345#1" fromLane="0" toLane="0"/>
    <connection from="-106134345#2" to="106134345#2" fromLane="0" toLane="0"/>

    <connection from="-106134346" to="75117910#1" fromLane="0" toLane="0"/>
    <connection from="-106134346" to="106134346" fromLane="0" toLane="0"/>

    <connection from="-106134372" to="106134374" fromLane="0" toLane="0"/>
    <connection from="-106134372" to="106134372" fromLane="0" toLane="0"/>

    <connection from="-106134392#0" to="-106134328" fromLane="0" toLane="0"/>
    <connection from="-106134392#0" to="106134392#0" fromLane="0" toLane="0"/>

    <connection from="-106134392#1" to="-106134392#0" fromLane="0" toLane="0"/>
    <connection from="-106134392#1" to="76259307" fromLane="0" toLane="0"/>
    <connection from="-106134392#1" to="106134392#1" fromLane="0" toLane="0"/>

    <connection from="-106134392#2" to="-106134392#1" fromLane="0" toLane="0"/>
    <connection from="-106134392#2" to="-194778550#2" fromLane="0" toLane="0"/>
    <connection from="-106134392#2" to="106134392#2" fromLane="0" toLane="0"/>

    <connection from="-106147508" to="38781733#1" fromLane="0" toLane="0"/>
    <connection from="-106147508" to="106147508" fromLane="0" toLane="0"/>

    <connection from="-116231961#0" to="23971471#0" fromLane="0" toLane="0"/>
    <connection from="-116231961#0" to="116231961#0" fromLane="0" toLane="0"/>

    <connection from="-116231961#1" to="-32933438" fromLane="0" toLane="0"/>
    <connection from="-116231961#1" to="-116231961#0" fromLane="0" toLane="0"/>
    <connection from="-116231961#1" to="116231961#1" fromLane="0" toLane="0"/>

    <connection from="-117976252#0" to="117976256" fromLane="0" toLane="0"/>
    <connection from="-117976252#0" to="117976252#0" fromLane="0" toLane="0"/>

    <connection from="-117976252#1" to="-117976252#0" fromLane="0" toLane="0"/>
    <connection from="-117976252#1" to="117976252#1" fromLane="0" toLane="0"/>

    <connection from="-118195325#0" to="118195333" fromLane="0" toLane="0"/>
    <connection from="-118195325#0" to="118195325#0" fromLane="0" toLane="0"/>

    <connection from="-118195325#1" to="-118195325#0" fromLane="0" toLane="0"/>
    <connection from="-118195325#1" to="249995218" fromLane="0" toLane="0"/>
    <connection from="-118195325#1" to="118195325#1" fromLane="0" toLane="0"/>

    <connection from="-118195327#0" to="118195331" fromLane="0" toLane="0"/>
    <connection from="-118195327#0" to="118195331" fromLane="1" toLane="1"/>
    <connection from="-118195327#0" to="118195327#0" fromLane="1" toLane="1"/>

    <connection from="-118195327#1" to="-118195327#0" fromLane="0" toLane="0"/>
    <connection from="-118195327#1" to="-118195327#0" fromLane="1" toLane="1"/>
    <connection from="-118195327#1" to="373638534" fromLane="1" toLane="0"/>
    <connection from="-118195327#1" to="118195327#1" fromLane="1" toLane="1"/>

    <connection from="-118195327#2" to="-118195327#1" fromLane="0" toLane="0"/>
    <connection from="-118195327#2" to="-118195327#1" fromLane="1" toLane="1"/>
    <connection from="-118195327#2" to="32933499" fromLane="1" toLane="0"/>
    <connection from="-118195327#2" to="118195327#2" fromLane="1" toLane="1"/>

    <connection from="-118195327#3" to="-118195327#2" fromLane="0" toLane="0"/>
    <connection from="-118195327#3" to="-118195327#2" fromLane="1" toLane="1"/>
    <connection from="-118195327#3" to="118195327#3" fromLane="1" toLane="1"/>

    <connection from="-118195327#4" to="-118195327#3" fromLane="0" toLane="0"/>
    <connection from="-118195327#4" to="-118195327#3" fromLane="1" toLane="1"/>
    <connection from="-118195327#4" to="373638486" fromLane="1" toLane="0"/>
    <connection from="-118195327#4" to="118195327#4" fromLane="1" toLane="1"/>

    <connection from="-118195327#5" to="-118195327#4" fromLane="0" toLane="0"/>
    <connection from="-118195327#5" to="-118195327#4" fromLane="1" toLane="1"/>
    <connection from="-118195327#5" to="32933487" fromLane="1" toLane="0"/>
    <connection from="-118195327#5" to="118195327#5" fromLane="1" toLane="1"/>

    <connection from="-118195328#0" to="118195336" fromLane="0" toLane="0"/>
    <connection from="-118195328#0" to="118195328#0" fromLane="0" toLane="0"/>

    <connection from="-118195328#1" to="-118195328#0" fromLane="0" toLane="0"/>
    <connection from="-118195328#1" to="118195328#1" fromLane="0" toLane="0"/>

    <connection from="-118195328#2" to="-118195328#1" fromLane="0" toLane="0"/>
    <connection from="-118195328#2" to="118195328#2" fromLane="0" toLane="0"/>

    <connection from="-118201157" to="344082739#0" fromLane="0" toLane="0"/>
    <connection from="-118201157" to="28343754" fromLane="0" toLane="0"/>
    <connection from="-118201157" to="28343755#0" fromLane="0" toLane="0"/>
    <connection from="-118201157" to="118201157" fromLane="0" toLane="0"/>

    <connection from="-118201163#0" to="123021267#2" fromLane="0" toLane="0"/>
    <connection from="-118201163#0" to="118201163#0" fromLane="0" toLane="0"/>

    <connection from="-118201163#1" to="-118201163#0" fromLane="0" toLane="0"/>
    <connection from="-118201163#1" to="174188602#3" fromLane="0" toLane="0"/>
    <connection from="-118201163#1" to="118201163#1" fromLane="0" toLane="0"/>

    <connection from="-118201170#0" to="-75117883#2" fromLane="0" toLane="0"/>
    <connection from="-118201170#0" to="-118201157" fromLane="0" toLane="0"/>
    <connection from="-118201170#0" to="118201170#0" fromLane="0" toLane="0"/>

    <connection from="-118201170#1" to="-118201170#0" fromLane="0" toLane="0"/>
    <connection from="-118201170#1" to="118201170#1" fromLane="0" toLane="0"/>

    <connection from="-118201170#2" to="-118201170#1" fromLane="0" toLane="0"/>
    <connection from="-118201170#2" to="-344082751" fromLane="0" toLane="0"/>
    <connection from="-118201170#2" to="118201170#2" fromLane="0" toLane="0"/>

    <connection from="-118201170#3" to="-118201170#2" fromLane="0" toLane="0"/>
    <connection from="-118201170#3" to="118201170#3" fromLane="0" toLane="0"/>

    <connection from="-120509978" to="-23957558#0" fromLane="0" toLane="0"/>
    <connection from="-120509978" to="23957558#1" fromLane="0" toLane="0"/>
    <connection from="-120509978" to="120509978" fromLane="0" toLane="0"/>

    <connection from="-120510394" to="-409073649#0" fromLane="0" toLane="0"/>
    <connection from="-120510394" to="409073649#1" fromLane="0" toLane="0"/>
    <connection from="-120510394" to="120510394" fromLane="0" toLane="0"/>

    <connection from="-120510395" to="409073646" fromLane="0" toLane="0"/>
    <connection from="-120510395" to="-123021276" fromLane="0" toLane="0"/>
    <connection from="-120510395" to="120510395" fromLane="0" toLane="0"/>

    <connection from="-120510396" to="-409073648" fromLane="0" toLane="0"/>
    <connection from="-120510396" to="409073649#0" fromLane="0" toLane="0"/>
    <connection from="-120510396" to="120510396" fromLane="0" toLane="0"/>

    <connection from="-120510397" to="28343755#2" fromLane="0" toLane="0"/>
    <connection from="-120510397" to="-28343755#1" fromLane="0" toLane="0"/>
    <connection from="-120510397" to="120510397" fromLane="0" toLane="0"/>

    <connection from="-123021275" to="120510393#3" fromLane="0" toLane="0"/>
    <connection from="-123021275" to="123021275" fromLane="0" toLane="0"/>

    <connection from="-123021276" to="-344082749#0" fromLane="0" toLane="0"/>
    <connection from="-123021276" to="344082749#1" fromLane="0" toLane="0"/>
    <connection from="-123021276" to="123021276" fromLane="0" toLane="0"/>

    <connection from="-123021280#0" to="-23881461#1" fromLane="0" toLane="0"/>
    <connection from="-123021280#0" to="23881461#2" fromLane="0" toLane="0"/>
    <connection from="-123021280#0" to="123021280#0" fromLane="0" toLane="0"/>

    <connection from="-123021280#1" to="-123021280#0" fromLane="0" toLane="0"/>
    <connection from="-123021280#1" to="123021280#1" fromLane="0" toLane="0"/>

    <connection from="-123021280#2" to="-123021280#1" fromLane="0" toLane="0"/>
    <connection from="-123021280#2" to="129144261" fromLane="0" toLane="0"/>
    <connection from="-123021280#2" to="123021280#2" fromLane="0" toLane="0"/>

    <connection from="-123021280#3" to="-123021280#2" fromLane="0" toLane="0"/>
    <connection from="-123021280#3" to="123021280#3" fromLane="0" toLane="0"/>

    <connection from="-123483728#0" to="-409243929#3" fromLane="0" toLane="0"/>
    <connection from="-123483728#0" to="-36244608#3" fromLane="0" toLane="0"/>
    <connection from="-123483728#0" to="123483728#0" fromLane="0" toLane="0"/>

    <connection from="-123483728#1" to="123484050#0" fromLane="0" toLane="0"/>
    <connection from="-123483728#1" to="-123483728#0" fromLane="0" toLane="0"/>
    <connection from="-123483728#1" to="123483728#1" fromLane="0" toLane="0"/>

    <connection from="-123483728#2" to="-123483728#1" fromLane="0" toLane="0"/>
    <connection from="-123483728#2" to="123483728#2" fromLane="0" toLane="0"/>

    <connection from="-123483728#3" to="123483951#1" fromLane="0" toLane="0"/>
    <connection from="-123483728#3" to="-123483728#2" fromLane="0" toLane="0"/>
    <connection from="-123483728#3" to="-123483951#0" fromLane="0" toLane="0"/>
    <connection from="-123483728#3" to="123483728#3" fromLane="0" toLane="0"/>

    <connection from="-123483728#4" to="-28355535#0" fromLane="0" toLane="0"/>
    <connection from="-123483728#4" to="-123483728#3" fromLane="0" toLane="0"/>
    <connection from="-123483728#4" to="28355535#1" fromLane="0" toLane="0"/>
    <connection from="-123483728#4" to="123483728#4" fromLane="0" toLane="0"/>

    <connection from="-123483740#0" to="-123483754#3" fromLane="0" toLane="0"/>
    <connection from="-123483740#0" to="123483754#4" fromLane="0" toLane="0"/>
    <connection from="-123483740#0" to="123483740#0" fromLane="0" toLane="0"/>

    <connection from="-123483740#1" to="-32933464#3" fromLane="0" toLane="0"/>
    <connection from="-123483740#1" to="-123483740#0" fromLane="0" toLane="0"/>
    <connection from="-123483740#1" to="32933464#4" fromLane="0" toLane="0"/>
    <connection from="-123483740#1" to="123483740#1" fromLane="0" toLane="0"/>

    <connection from="-123483741" to="-23971697#2" fromLane="0" toLane="0"/>
    <connection from="-123483741" to="23971697#3" fromLane="0" toLane="0"/>
    <connection from="-123483741" to="123483741" fromLane="0" toLane="0"/>

    <connection from="-123483753#0" to="-123484141#4" fromLane="0" toLane="0"/>
    <connection from="-123483753#0" to="123484141#5" fromLane="0" toLane="0"/>
    <connection from="-123483753#0" to="123483753#0" fromLane="0" toLane="0"/>

    <connection from="-123483753#1" to="-123483753#0" fromLane="0" toLane="0"/>
    <connection from="-123483753#1" to="123483753#1" fromLane="0" toLane="0"/>

    <connection from="-123483753#2" to="-123483753#1" fromLane="0" toLane="0"/>
    <connection from="-123483753#2" to="123483753#2" fromLane="0" toLane="0"/>

    <connection from="-123483753#3" to="-123483817#1" fromLane="0" toLane="0"/>
    <connection from="-123483753#3" to="-123483753#2" fromLane="0" toLane="0"/>
    <connection from="-123483753#3" to="123483753#3" fromLane="0" toLane="0"/>

    <connection from="-123483753#4" to="-123483753#3" fromLane="0" toLane="0"/>
    <connection from="-123483753#4" to="123483753#4" fromLane="0" toLane="0"/>

    <connection from="-123483754#0" to="123483754#0" fromLane="0" toLane="0"/>

    <connection from="-123483754#1" to="123484012#0" fromLane="0" toLane="0"/>
    <connection from="-123483754#1" to="-123483754#0" fromLane="0" toLane="0"/>
    <connection from="-123483754#1" to="123483754#1" fromLane="0" toLane="0"/>

    <connection from="-123483754#2" to="123484116#0" fromLane="0" toLane="0"/>
    <connection from="-123483754#2" to="-123483754#1" fromLane="0" toLane="0"/>
    <connection from="-123483754#2" to="123483754#2" fromLane="0" toLane="0"/>

    <connection from="-123483754#3" to="-123483783#1" fromLane="0" toLane="0"/>
    <connection from="-123483754#3" to="-123483754#2" fromLane="0" toLane="0"/>
    <connection from="-123483754#3" to="123483754#3" fromLane="0" toLane="0"/>

    <connection from="-123483754#4" to="123483740#0" fromLane="0" toLane="0"/>
    <connection from="-123483754#4" to="-123483754#3" fromLane="0" toLane="0"/>
    <connection from="-123483754#4" to="123483754#4" fromLane="0" toLane="0"/>

    <connection from="-123483762#0" to="123483851#7" fromLane="0" toLane="0"/>
    <connection from="-123483762#0" to="123483762#0" fromLane="0" toLane="0"/>

    <connection from="-123483762#1" to="-123483762#0" fromLane="0" toLane="0"/>
    <connection from="-123483762#1" to="-123484086#7" fromLane="0" toLane="0"/>
    <connection from="-123483762#1" to="123483762#1" fromLane="0" toLane="0"/>

    <connection from="-123483762#2" to="-123484137" fromLane="0" toLane="0"/>
    <connection from="-123483762#2" to="-123483762#1" fromLane="0" toLane="0"/>
    <connection from="-123483762#2" to="123483762#2" fromLane="0" toLane="0"/>

    <connection from="-123483762#3" to="-123483762#2" fromLane="0" toLane="0"/>
    <connection from="-123483762#3" to="123483821#0" fromLane="0" toLane="0"/>
    <connection from="-123483762#3" to="123483762#3" fromLane="0" toLane="0"/>

    <connection from="-123483779" to="123483779" fromLane="0" toLane="0"/>

    <connection from="-123483783#0" to="123483978#3" fromLane="0" toLane="0"/>
    <connection from="-123483783#0" to="-123483978#2" fromLane="0" toLane="0"/>
    <connection from="-123483783#0" to="123483783#0" fromLane="0" toLane="0"/>

    <connection from="-123483783#1" to="32933464#3" fromLane="0" toLane="0"/>
    <connection from="-123483783#1" to="-123483783#0" fromLane="0" toLane="0"/>
    <connection from="-123483783#1" to="-32933464#2" fromLane="0" toLane="0"/>
    <connection from="-123483783#1" to="123483783#1" fromLane="0" toLane="0"/>

    <connection from="-123483789" to="-23971716#0" fromLane="0" toLane="0"/>
    <connection from="-123483789" to="23971716#1" fromLane="0" toLane="0"/>
    <connection from="-123483789" to="123483789" fromLane="0" toLane="0"/>

    <connection from="-123483790" to="-123484178#1" fromLane="0" toLane="0"/>
    <connection from="-123483790" to="123483790" fromLane="0" toLane="0"/>

    <connection from="-123483798#0" to="123483798#0" fromLane="0" toLane="0"/>

    <connection from="-123483798#1" to="123484163#1" fromLane="0" toLane="0"/>
    <connection from="-123483798#1" to="-123483798#0" fromLane="0" toLane="0"/>
    <connection from="-123483798#1" to="-123484163#0" fromLane="0" toLane="0"/>
    <connection from="-123483798#1" to="123483798#1" fromLane="0" toLane="0"/>

    <connection from="-123483817#0" to="-50170572#3" fromLane="0" toLane="0"/>
    <connection from="-123483817#0" to="50170572#4" fromLane="0" toLane="0"/>
    <connection from="-123483817#0" to="123483817#0" fromLane="0" toLane="0"/>

    <connection from="-123483817#1" to="-123483817#0" fromLane="0" toLane="0"/>
    <connection from="-123483817#1" to="123483817#1" fromLane="0" toLane="0"/>

    <connection from="-123483820" to="75117816#11" fromLane="0" toLane="0"/>
    <connection from="-123483820" to="-75117816#10" fromLane="0" toLane="0"/>
    <connection from="-123483820" to="123483820" fromLane="0" toLane="0"/>

    <connection from="-123483821#0" to="123483762#3" fromLane="0" toLane="0"/>
    <connection from="-123483821#0" to="-123483762#2" fromLane="0" toLane="0"/>
    <connection from="-123483821#0" to="123483821#0" fromLane="0" toLane="0"/>

    <connection from="-123483821#1" to="-123484086#5" fromLane="0" toLane="0"/>
    <connection from="-123483821#1" to="-123483821#0" fromLane="0" toLane="0"/>
    <connection from="-123483821#1" to="123484086#6" fromLane="0" toLane="0"/>
    <connection from="-123483821#1" to="123483821#1" fromLane="0" toLane="0"/>

    <connection from="-123483821#2" to="-123483821#1" fromLane="0" toLane="0"/>
    <connection from="-123483821#2" to="123483821#2" fromLane="0" toLane="0"/>

    <connection from="-123483821#3" to="-123483821#2" fromLane="0" toLane="0"/>
    <connection from="-123483821#3" to="123483814#6" fromLane="0" toLane="0"/>
    <connection from="-123483821#3" to="123483821#3" fromLane="0" toLane="0"/>

    <connection from="-123483821#4" to="123483787#3" fromLane="0" toLane="0"/>
    <connection from="-123483821#4" to="-123483821#3" fromLane="0" toLane="0"/>
    <connection from="-123483821#4" to="123483821#4" fromLane="0" toLane="0"/>

    <connection from="-123483821#5" to="-123483821#4" fromLane="0" toLane="0"/>
    <connection from="-123483821#5" to="123483821#5" fromLane="0" toLane="0"/>

    <connection from="-123483821#6" to="-123483821#5" fromLane="0" toLane="0"/>
    <connection from="-123483821#6" to="123483821#6" fromLane="0" toLane="0"/>

    <connection from="-123483821#7" to="-123483821#6" fromLane="0" toLane="0"/>
    <connection from="-123483821#7" to="123483821#7" fromLane="0" toLane="0"/>

    <connection from="-123483822#0" to="-22890686#2" fromLane="0" toLane="0"/>
    <connection from="-123483822#0" to="22890686#3" fromLane="0" toLane="0"/>
    <connection from="-123483822#0" to="123483822#0" fromLane="0" toLane="0"/>

    <connection from="-123483822#1" to="-123483822#0" fromLane="0" toLane="0"/>
    <connection from="-123483822#1" to="123483822#1" fromLane="0" toLane="0"/>

    <connection from="-123483825#0" to="-75482908" fromLane="0" toLane="0"/>
    <connection from="-123483825#0" to="123483825#0" fromLane="0" toLane="0"/>

    <connection from="-123483825#1" to="-123484005#1" fromLane="0" toLane="0"/>
    <connection from="-123483825#1" to="-123483825#0" fromLane="0" toLane="0"/>
    <connection from="-123483825#1" to="123483825#1" fromLane="0" toLane="0"/>

    <connection from="-123483825#2" to="221092675" fromLane="0" toLane="0"/>
    <connection from="-123483825#2" to="-123483825#1" fromLane="0" toLane="0"/>
    <connection from="-123483825#2" to="123483825#2" fromLane="0" toLane="0"/>

    <connection from="-123483829#0" to="23971606#1" fromLane="0" toLane="0"/>
    <connection from="-123483829#0" to="-23971606#0" fromLane="0" toLane="0"/>
    <connection from="-123483829#0" to="123483829#0" fromLane="0" toLane="0"/>

    <connection from="-123483829#1" to="-123483829#0" fromLane="0" toLane="0"/>
    <connection from="-123483829#1" to="123483829#1" fromLane="0" toLane="0"/>

    <connection from="-123483836" to="-123483888#1" fromLane="0" toLane="0"/>
    <connection from="-123483836" to="123483836" fromLane="0" toLane="0"/>

    <connection from="-123483852" to="-23971716#1" fromLane="0" toLane="0"/>
    <connection from="-123483852" to="23971716#2" fromLane="0" toLane="0"/>
    <connection from="-123483852" to="123483852" fromLane="0" toLane="0"/>

    <connection from="-123483854" to="125234341#1" fromLane="0" toLane="0"/>
    <connection from="-123483854" to="123483854" fromLane="0" toLane="0"/>

    <connection from="-123483857#0" to="204970805" fromLane="0" toLane="0"/>
    <connection from="-123483857#0" to="123483857#0" fromLane="0" toLane="0"/>

    <connection from="-123483857#1" to="-123483857#0" fromLane="0" toLane="0"/>
    <connection from="-123483857#1" to="-28355491#3" fromLane="0" toLane="0"/>
    <connection from="-123483857#1" to="123483857#1" fromLane="0" toLane="0"/>

    <connection from="-123483857#2" to="-123483857#1" fromLane="0" toLane="0"/>
    <connection from="-123483857#2" to="24560962#0" fromLane="0" toLane="0"/>
    <connection from="-123483857#2" to="123483857#2" fromLane="0" toLane="0"/>

    <connection from="-123483857#3" to="-123483857#2" fromLane="0" toLane="0"/>
    <connection from="-123483857#3" to="-23971712#4" fromLane="0" toLane="0"/>
    <connection from="-123483857#3" to="123483857#3" fromLane="0" toLane="0"/>

    <connection from="-123483857#4" to="-123483857#3" fromLane="0" toLane="0"/>
    <connection from="-123483857#4" to="123483857#4" fromLane="0" toLane="0"/>

    <connection from="-123483861" to="-24560963#2" fromLane="0" toLane="0"/>
    <connection from="-123483861" to="24560963#3" fromLane="0" toLane="0"/>
    <connection from="-123483861" to="123483861" fromLane="0" toLane="0"/>

    <connection from="-123483880#0" to="-50170572#4" fromLane="0" toLane="0"/>
    <connection from="-123483880#0" to="50170572#5" fromLane="0" toLane="0"/>
    <connection from="-123483880#0" to="123483880#0" fromLane="0" toLane="0"/>

    <connection from="-123483880#1" to="-123483880#0" fromLane="0" toLane="0"/>
    <connection from="-123483880#1" to="123483880#1" fromLane="0" toLane="0"/>

    <connection from="-123483885" to="-75117816#2" fromLane="0" toLane="0"/>
    <connection from="-123483885" to="75117816#3" fromLane="0" toLane="0"/>
    <connection from="-123483885" to="123483885" fromLane="0" toLane="0"/>

    <connection from="-123483888#0" to="-382134172#1" fromLane="0" toLane="0"/>
    <connection from="-123483888#0" to="382134172#2" fromLane="0" toLane="0"/>
    <connection from="-123483888#0" to="123483888#0" fromLane="0" toLane="0"/>

    <connection from="-123483888#1" to="-123483894" fromLane="0" toLane="0"/>
    <connection from="-123483888#1" to="-123483888#0" fromLane="0" toLane="0"/>
    <connection from="-123483888#1" to="123483888#1" fromLane="0" toLane="0"/>

    <connection from="-123483894" to="-123483836" fromLane="0" toLane="0"/>
    <connection from="-123483894" to="-123483968" fromLane="0" toLane="0"/>
    <connection from="-123483894" to="123483894" fromLane="0" toLane="0"/>

    <connection from="-123483911#0" to="123483911#0" fromLane="0" toLane="0"/>

    <connection from="-123483911#1" to="-123484110" fromLane="0" toLane="0"/>
    <connection from="-123483911#1" to="-123483911#0" fromLane="0" toLane="0"/>
    <connection from="-123483911#1" to="123483911#1" fromLane="0" toLane="0"/>

    <connection from="-123483911#2" to="123484110" fromLane="0" toLane="0"/>
    <connection from="-123483911#2" to="-123483911#1" fromLane="0" toLane="0"/>
    <connection from="-123483911#2" to="123483911#2" fromLane="0" toLane="0"/>

    <connection from="-123483911#3" to="382109583#0" fromLane="0" toLane="0"/>
    <connection from="-123483911#3" to="-123483911#2" fromLane="0" toLane="0"/>
    <connection from="-123483911#3" to="123483911#3" fromLane="0" toLane="0"/>

    <connection from="-123483912" to="32933439#2" fromLane="0" toLane="0"/>
    <connection from="-123483912" to="-32933439#1" fromLane="0" toLane="0"/>
    <connection from="-123483912" to="123483912" fromLane="0" toLane="0"/>

    <connection from="-123483918" to="320348772#3" fromLane="0" toLane="0"/>
    <connection from="-123483918" to="-320348772#2" fromLane="0" toLane="0"/>
    <connection from="-123483918" to="123483918" fromLane="0" toLane="0"/>

    <connection from="-123483920#0" to="123483920#0" fromLane="0" toLane="0"/>

    <connection from="-123483920#1" to="-123483779" fromLane="0" toLane="0"/>
    <connection from="-123483920#1" to="-123483920#0" fromLane="0" toLane="0"/>
    <connection from="-123483920#1" to="123483920#1" fromLane="0" toLane="0"/>

    <connection from="-123483949" to="-76508319#1" fromLane="0" toLane="0"/>
    <connection from="-123483949" to="123483949" fromLane="0" toLane="0"/>

    <connection from="-123483951#0" to="123483951#0" fromLane="0" toLane="0"/>

    <connection from="-123483951#1" to="-123483728#2" fromLane="0" toLane="0"/>
    <connection from="-123483951#1" to="-123483951#0" fromLane="0" toLane="0"/>
    <connection from="-123483951#1" to="123483728#3" fromLane="0" toLane="0"/>
    <connection from="-123483951#1" to="123483951#1" fromLane="0" toLane="0"/>

    <connection from="-123483958#0" to="123483978#7" fromLane="0" toLane="0"/>
    <connection from="-123483958#0" to="-123483978#6" fromLane="0" toLane="0"/>
    <connection from="-123483958#0" to="123483958#0" fromLane="0" toLane="0"/>

    <connection from="-123483958#1" to="32933464#7" fromLane="0" toLane="0"/>
    <connection from="-123483958#1" to="-123483958#0" fromLane="0" toLane="0"/>
    <connection from="-123483958#1" to="-32933464#6" fromLane="0" toLane="0"/>
    <connection from="-123483958#1" to="123483958#1" fromLane="0" toLane="0"/>

    <connection from="-123483968" to="123484005#1" fromLane="0" toLane="0"/>
    <connection from="-123483968" to="-123484005#0" fromLane="0" toLane="0"/>
    <connection from="-123483968" to="123483968" fromLane="0" toLane="0"/>

    <connection from="-123483978#0" to="123483978#0" fromLane="0" toLane="0"/>
