<?xml version="1.0" encoding="UTF-8"?>

<!-- generated on Tue Nov 29 11:00:39 2016 by SUMO netconvert Version 0.27.1
<?xml version="1.0" encoding="UTF-8"?>

<configuration xmlns:xsi="http://www.w3.org/2001/XMLSchema-instance" xsi:noNamespaceSchemaLocation="http://sumo.dlr.de/xsd/netconvertConfiguration.xsd">

    <input>
        <type-files value="netconvert.osm.types.xml"/>
        <osm-files value="../osm/alcalahenares.osm"/>
    </input>

    <output>
        <output-file value="alcalahenares.net.xml"/>
        <plain-output-prefix value="alcalahenares"/>
        <output.street-names value="true"/>
        <output.original-names value="true"/>
    </output>

    <projection>
        <proj.utm value="true"/>
        <proj.plain-geo value="true"/>
    </projection>

    <edge_removal>
        <remove-edges.by-type value="highway.bridleway,highway.cycleway,highway.footway,highway.ford,highway.path,highway.pedestrian,highway.stairs,highway.step,highway.steps,highway.track,railway.light_rail,railway.preserved,railway.rail,railway.subway,railway.tram"/>
    </edge_removal>

</configuration>
-->

<nodes version="0.27" xmlns:xsi="http://www.w3.org/2001/XMLSchema-instance" xsi:noNamespaceSchemaLocation="http://sumo.dlr.de/xsd/nodes_file.xsd">
    <node id="1008995834" x="-3.329860" y="40.504169" type="priority"/>
    <node id="1008995846" x="-3.332817" y="40.504618" type="priority"/>
    <node id="1008995876" x="-3.331286" y="40.503434" type="priority"/>
    <node id="1008995915" x="-3.328573" y="40.502119" type="priority"/>
    <node id="1008995952" x="-3.329879" y="40.504153" type="priority"/>
    <node id="1008995980" x="-3.329842" y="40.504070" type="priority"/>
    <node id="1008996028" x="-3.330680" y="40.503559" type="priority"/>
    <node id="1008996080" x="-3.329752" y="40.504093" type="priority"/>
    <node id="1008996094" x="-3.327646" y="40.504180" type="priority"/>
    <node id="1008996102" x="-3.331713" y="40.503972" type="priority"/>
    <node id="1053029995" x="-3.406234" y="40.497697" type="priority"/>
    <node id="1053030017" x="-3.391992" y="40.492898" type="priority"/>
    <node id="1053030024" x="-3.403634" y="40.489899" type="priority"/>
    <node id="1053030065" x="-3.391597" y="40.493527" type="priority"/>
    <node id="1053030071" x="-3.403822" y="40.494719" type="priority"/>
    <node id="1053030078" x="-3.396090" y="40.482126" type="priority"/>
    <node id="1053030081" x="-3.404784" y="40.487279" type="priority"/>
    <node id="1053030086" x="-3.404123" y="40.499642" type="priority"/>
    <node id="1053030110" x="-3.379843" y="40.480551" type="priority"/>
    <node id="1053030114" x="-3.374273" y="40.500231" type="priority"/>
    <node id="1053030124" x="-3.405484" y="40.487221" type="priority"/>
    <node id="1053030147" x="-3.376899" y="40.481888" type="priority"/>
    <node id="1053030171" x="-3.396353" y="40.500223" type="priority"/>
    <node id="1053030173" x="-3.379155" y="40.479890" type="priority"/>
    <node id="1053030175" x="-3.405469" y="40.487511" type="priority"/>
    <node id="1053030179" x="-3.400722" y="40.480865" type="priority"/>
    <node id="1053030208" x="-3.396276" y="40.500649" type="priority"/>
    <node id="1053030210" x="-3.402951" y="40.489621" type="priority"/>
    <node id="1053030230" x="-3.404304" y="40.497292" type="priority"/>
    <node id="1053030251" x="-3.403658" y="40.489728" type="priority"/>
    <node id="1053030253" x="-3.379589" y="40.479894" type="priority"/>
    <node id="1053030257" x="-3.408592" y="40.487364" type="unregulated"/>
    <node id="1053030264" x="-3.401898" y="40.492150" type="priority"/>
    <node id="1053030267" x="-3.379505" y="40.480579" type="priority"/>
    <node id="1053030313" x="-3.404335" y="40.488623" type="priority"/>
    <node id="1053030317" x="-3.387815" y="40.492887" type="priority"/>
    <node id="1053030329" x="-3.379383" y="40.479994" type="priority"/>
    <node id="1053030334" x="-3.406721" y="40.489325" type="priority"/>
    <node id="1053030338" x="-3.403211" y="40.489558" type="priority"/>
    <node id="1053030358" x="-3.404982" y="40.487097" type="priority"/>
    <node id="1053030366" x="-3.378564" y="40.481554" type="priority"/>
    <node id="1053030369" x="-3.404354" y="40.498750" type="priority"/>
    <node id="1053030412" x="-3.379584" y="40.479717" type="priority"/>
    <node id="1053030444" x="-3.379914" y="40.480678" type="priority"/>
    <node id="1053030466" x="-3.378245" y="40.480631" type="priority"/>
    <node id="1053030498" x="-3.401657" y="40.492863" type="priority"/>
    <node id="1053030503" x="-3.379131" y="40.479805" type="priority"/>
    <node id="1053030516" x="-3.405377" y="40.487587" type="priority"/>
    <node id="1053030528" x="-3.379742" y="40.481318" type="priority"/>
    <node id="1053030544" x="-3.404443" y="40.494738" type="priority"/>
    <node id="1053030573" x="-3.401463" y="40.482506" type="priority"/>
    <node id="1053030575" x="-3.379616" y="40.479800" type="priority"/>
    <node id="1053030577" x="-3.403775" y="40.488877" type="priority"/>
    <node id="1053030598" x="-3.378895" y="40.482453" type="priority"/>
    <node id="1053030652" x="-3.403755" y="40.495156" type="priority"/>
    <node id="1053030653" x="-3.382428" y="40.481981" type="priority"/>
    <node id="1053030655" x="-3.396134" y="40.482204" type="priority"/>
    <node id="1053030658" x="-3.378073" y="40.480112" type="priority"/>
    <node id="1053030665" x="-3.380053" y="40.482205" type="priority"/>
    <node id="1053030681" x="-3.379621" y="40.480838" type="priority"/>
    <node id="1060334442" x="-3.358559" y="40.510196" type="priority"/>
    <node id="1060334475" x="-3.370385" y="40.510999" type="priority"/>
    <node id="1060334477" x="-3.368886" y="40.509720" type="priority"/>
    <node id="1060334614" x="-3.371746" y="40.512256" type="priority"/>
    <node id="1060334665" x="-3.359032" y="40.507865" type="priority"/>
    <node id="1060334704" x="-3.369450" y="40.508496" type="priority"/>
    <node id="1060334878" x="-3.370103" y="40.507036" type="priority"/>
    <node id="1060334880" x="-3.359633" y="40.514875" type="priority"/>
    <node id="1060334936" x="-3.374479" y="40.505042" type="priority"/>
    <node id="1060334954" x="-3.361505" y="40.518697" type="priority"/>
    <node id="1060334985" x="-3.374147" y="40.504634" type="priority"/>
    <node id="1060335027" x="-3.370249" y="40.507077" type="priority"/>
    <node id="1060335067" x="-3.358676" y="40.510597" type="priority"/>
    <node id="1060396408" x="-3.328056" y="40.502358" type="right_before_left"/>
    <node id="1060396409" x="-3.328386" y="40.502225" type="right_before_left"/>
    <node id="1060396410" x="-3.327534" y="40.502499" type="priority"/>
    <node id="1060396412" x="-3.329468" y="40.501716" type="right_before_left"/>
    <node id="1060396414" x="-3.329239" y="40.501739" type="right_before_left"/>
    <node id="1060396415" x="-3.334249" y="40.505802" type="priority"/>
    <node id="1060396420" x="-3.329465" y="40.502435" type="priority"/>
    <node id="1060396421" x="-3.328546" y="40.502841" type="right_before_left"/>
    <node id="1060396422" x="-3.327655" y="40.502418" type="priority"/>
    <node id="1060396424" x="-3.328068" y="40.503236" type="priority"/>
    <node id="1060396426" x="-3.328405" y="40.502923" type="right_before_left"/>
    <node id="1060396431" x="-3.328127" y="40.503085" type="right_before_left"/>
    <node id="1060396434" x="-3.331661" y="40.507697" type="priority"/>
    <node id="1060396436" x="-3.329318" y="40.502522" type="priority"/>
    <node id="1060396438" x="-3.327499" y="40.502687" type="right_before_left"/>
    <node id="1060396440" x="-3.327916" y="40.502441" type="right_before_left"/>
    <node id="1060396443" x="-3.328939" y="40.501921" type="right_before_left"/>
    <node id="1060396444" x="-3.329609" y="40.502350" type="priority"/>
    <node id="1060396445" x="-3.328521" y="40.502148" type="right_before_left"/>
    <node id="1060396447" x="-3.329911" y="40.502171" type="priority"/>
    <node id="1060396448" x="-3.327637" y="40.502606" type="right_before_left"/>
    <node id="1060396449" x="-3.333083" y="40.504812" type="priority"/>
    <node id="1060396450" x="-3.329761" y="40.502260" type="priority"/>
    <node id="1060396452" x="-3.334183" y="40.505644" type="priority"/>
    <node id="1060396454" x="-3.330055" y="40.502084" type="priority"/>
    <node id="1060396455" x="-3.328101" y="40.502174" type="priority"/>
    <node id="1060396457" x="-3.328344" y="40.502182" type="right_before_left"/>
    <node id="1060396468" x="-3.329095" y="40.501594" type="right_before_left"/>
    <node id="1060396469" x="-3.327951" y="40.502251" type="priority"/>
    <node id="1060396470" x="-3.329751" y="40.501544" type="right_before_left"/>
    <node id="1060396473" x="-3.328823" y="40.502681" type="right_before_left"/>
    <node id="1060396474" x="-3.330212" y="40.501989" type="priority"/>
    <node id="1060396475" x="-3.329094" y="40.501830" type="right_before_left"/>
    <node id="1060396477" x="-3.335701" y="40.505572" type="priority"/>
    <node id="1060396479" x="-3.330908" y="40.507120" type="priority"/>
    <node id="1060396480" x="-3.327992" y="40.503163" type="right_before_left"/>
    <node id="1060396481" x="-3.327267" y="40.502658" type="priority"/>
    <node id="1060396484" x="-3.328797" y="40.502007" type="right_before_left"/>
    <node id="1060396489" x="-3.329604" y="40.501633" type="right_before_left"/>
    <node id="1060396494" x="-3.329901" y="40.501453" type="right_before_left"/>
    <node id="1060396497" x="-3.328266" y="40.503004" type="right_before_left"/>
    <node id="1060396499" x="-3.330356" y="40.501902" type="priority"/>
    <node id="1060396500" x="-3.328788" y="40.501769" type="right_before_left"/>
    <node id="1060396502" x="-3.327394" y="40.502583" type="priority"/>
    <node id="1060396506" x="-3.328944" y="40.501680" type="right_before_left"/>
    <node id="1060396508" x="-3.328640" y="40.501853" type="right_before_left"/>
    <node id="1060396512" x="-3.328687" y="40.502759" type="right_before_left"/>
    <node id="1060396515" x="-3.328198" y="40.502271" type="right_before_left"/>
    <node id="1060396516" x="-3.329311" y="40.501807" type="right_before_left"/>
    <node id="1060396518" x="-3.327372" y="40.502763" type="right_before_left"/>
    <node id="1060396519" x="-3.327809" y="40.502338" type="priority"/>
    <node id="1060396523" x="-3.334110" y="40.505702" type="priority"/>
    <node id="1060396524" x="-3.327767" y="40.502529" type="right_before_left"/>
    <node id="1060413909" x="-3.358125" y="40.496594" type="priority"/>
    <node id="1060413912" x="-3.354079" y="40.497318" type="priority"/>
    <node id="1060413931" x="-3.354176" y="40.497343" type="priority"/>
    <node id="1060413938" x="-3.356696" y="40.493175" type="priority"/>
    <node id="1060413939" x="-3.362693" y="40.495754" type="priority"/>
    <node id="1060413951" x="-3.357117" y="40.496822" type="priority"/>
    <node id="1060413957" x="-3.363373" y="40.495192" type="priority"/>
    <node id="1060413965" x="-3.351049" y="40.501719" type="priority"/>
    <node id="1060413973" x="-3.350793" y="40.502260" type="priority"/>
    <node id="1060413982" x="-3.356450" y="40.492624" type="priority"/>
    <node id="1060413983" x="-3.362896" y="40.495674" type="priority"/>
    <node id="1060414014" x="-3.366126" y="40.494800" type="priority"/>
    <node id="1060414034" x="-3.367401" y="40.502210" type="priority"/>
    <node id="1060458624" x="-3.379600" y="40.476534" type="priority"/>
    <node id="1060458670" x="-3.373345" y="40.478476" type="priority"/>
    <node id="1060458687" x="-3.386637" y="40.492474" type="priority"/>
    <node id="1060458690" x="-3.375820" y="40.477469" type="priority"/>
    <node id="1060458716" x="-3.387204" y="40.493108" type="priority"/>
    <node id="1060458717" x="-3.382123" y="40.475666" type="priority"/>
    <node id="1060458728" x="-3.384772" y="40.493062" type="priority"/>
    <node id="1060458730" x="-3.370064" y="40.483934" type="traffic_light" tl="1060458730"/>
    <node id="1060458780" x="-3.386380" y="40.490883" type="priority"/>
    <node id="1060458789" x="-3.386909" y="40.492729" type="priority"/>
    <node id="1060458794" x="-3.385888" y="40.491956" type="priority"/>
    <node id="1060458804" x="-3.382342" y="40.475505" type="priority"/>
    <node id="1060458848" x="-3.373225" y="40.478388" type="priority"/>
    <node id="1060458860" x="-3.382029" y="40.475782" type="priority"/>
    <node id="1060458882" x="-3.359863" y="40.477456" type="priority"/>
    <node id="1060458884" x="-3.368705" y="40.484396" type="priority"/>
    <node id="1060458886" x="-3.383123" y="40.491474" type="priority"/>
    <node id="1060458932" x="-3.383039" y="40.475026" type="priority"/>
    <node id="1060458983" x="-3.385673" y="40.491891" type="priority"/>
    <node id="1060458986" x="-3.368461" y="40.483213" type="priority"/>
    <node id="1060459004" x="-3.381878" y="40.475636" type="priority"/>
    <node id="1060459050" x="-3.385859" y="40.492357" type="priority"/>
    <node id="1060459063" x="-3.382334" y="40.475781" type="priority"/>
    <node id="1060459065" x="-3.386445" y="40.491549" type="priority"/>
    <node id="1060459073" x="-3.377203" y="40.477244" type="priority"/>
    <node id="1060459090" x="-3.384420" y="40.490721" type="priority"/>
    <node id="1060459098" x="-3.386409" y="40.491677" type="priority"/>
    <node id="1060459108" x="-3.386007" y="40.493803" type="right_before_left"/>
    <node id="1060459110" x="-3.375723" y="40.477690" type="priority"/>
    <node id="1060459185" x="-3.387288" y="40.492897" type="priority"/>
    <node id="1060459190" x="-3.384348" y="40.490656" type="priority"/>
    <node id="1060459217" x="-3.385633" y="40.490501" type="priority"/>
    <node id="1060459231" x="-3.375908" y="40.477638" type="priority"/>
    <node id="1060459258" x="-3.368447" y="40.483882" type="priority"/>
    <node id="1060459261" x="-3.375638" y="40.477529" type="priority"/>
    <node id="1103870912" x="-3.387979" y="40.503946" type="priority"/>
    <node id="1103870932" x="-3.388725" y="40.504878" type="priority"/>
    <node id="1103870938" x="-3.329722" y="40.505248" type="priority"/>
    <node id="1103870956" x="-3.375727" y="40.512960" type="priority"/>
    <node id="1103871013" x="-3.375498" y="40.512997" type="priority"/>
    <node id="1103871032" x="-3.386604" y="40.504356" type="priority"/>
    <node id="1103871042" x="-3.327107" y="40.501776" type="priority"/>
    <node id="1103871077" x="-3.325348" y="40.502235" type="priority"/>
    <node id="1103871080" x="-3.379103" y="40.511756" type="priority"/>
    <node id="1103871083" x="-3.379435" y="40.513216" type="priority"/>
    <node id="1103871105" x="-3.386911" y="40.504446" type="priority"/>
    <node id="1103871118" x="-3.386787" y="40.504727" type="priority"/>
    <node id="1103871164" x="-3.329161" y="40.505343" type="right_before_left"/>
    <node id="1103871190" x="-3.385072" y="40.502045" type="priority"/>
    <node id="1103871200" x="-3.378300" y="40.512479" type="priority"/>
    <node id="1103871224" x="-3.328410" y="40.505014" type="priority"/>
    <node id="1103871244" x="-3.383230" y="40.504248" type="priority"/>
    <node id="1103871261" x="-3.386455" y="40.504640" type="priority"/>
    <node id="1103871268" x="-3.402408" y="40.507187" type="priority"/>
    <node id="1103871269" x="-3.384621" y="40.507027" type="priority"/>
    <node id="1103871278" x="-3.381823" y="40.501247" type="priority"/>
    <node id="1119354809" x="-3.399317" y="40.496776" type="priority"/>
    <node id="1119354811" x="-3.397071" y="40.500831" type="priority"/>
    <node id="1119354833" x="-3.399154" y="40.496736" type="priority"/>
    <node id="1119354855" x="-3.397908" y="40.500990" type="priority"/>
    <node id="1119354858" x="-3.397648" y="40.500227" type="priority"/>
    <node id="1119354878" x="-3.399953" y="40.494522" type="priority"/>
    <node id="1128916645" x="-3.366864" y="40.504435" type="priority"/>
    <node id="1128916650" x="-3.369815" y="40.502992" type="priority"/>
    <node id="1128916662" x="-3.393424" y="40.499224" type="priority"/>
    <node id="1128916664" x="-3.362124" y="40.505934" type="priority"/>
    <node id="1128916666" x="-3.386344" y="40.496455" type="priority"/>
    <node id="1128916715" x="-3.392691" y="40.498865" type="priority"/>
    <node id="1128916716" x="-3.406852" y="40.476846" type="priority"/>
    <node id="1128916731" x="-3.389536" y="40.497760" type="priority"/>
    <node id="1128916786" x="-3.394874" y="40.499949" type="priority"/>
    <node id="1131520647" x="-3.405164" y="40.513500" type="priority"/>
    <node id="1131520662" x="-3.403305" y="40.510015" type="priority"/>
    <node id="1131520701" x="-3.405117" y="40.513436" type="priority"/>
    <node id="1131520712" x="-3.399811" y="40.495475" type="priority"/>
    <node id="1131520736" x="-3.398353" y="40.502942" type="priority"/>
    <node id="1131520758" x="-3.397055" y="40.500863" type="priority"/>
    <node id="1131520771" x="-3.405078" y="40.513501" type="priority"/>
    <node id="1131520797" x="-3.396498" y="40.500239" type="priority"/>
    <node id="1131520801" x="-3.397602" y="40.501075" type="priority"/>
    <node id="1131520804" x="-3.405707" y="40.513258" type="priority"/>
    <node id="1131520813" x="-3.401616" y="40.507713" type="priority"/>
    <node id="1131520818" x="-3.398094" y="40.503443" type="priority"/>
    <node id="1131520851" x="-3.399498" y="40.492285" type="priority"/>
    <node id="1131520853" x="-3.399558" y="40.496227" type="priority"/>
    <node id="1131520913" x="-3.397891" y="40.501035" type="priority"/>
    <node id="1131520915" x="-3.398771" y="40.497874" type="priority"/>
    <node id="1131520982" x="-3.401027" y="40.507625" type="priority"/>
    <node id="1131520992" x="-3.397497" y="40.499625" type="priority"/>
    <node id="1131520995" x="-3.405664" y="40.513199" type="priority"/>
    <node id="1131521027" x="-3.399388" y="40.504542" type="priority"/>
    <node id="1131521028" x="-3.405758" y="40.513194" type="priority"/>
    <node id="1139411771" x="-3.407523" y="40.518458" type="priority"/>
    <node id="1139411796" x="-3.407677" y="40.517886" type="priority"/>
    <node id="1165482272" x="-3.401857" y="40.469638" type="priority"/>
    <node id="1165482290" x="-3.391995" y="40.476832" type="priority"/>
    <node id="1165482312" x="-3.394803" y="40.476015" type="priority"/>
    <node id="1165482322" x="-3.405725" y="40.468375" type="priority"/>
    <node id="1165482325" x="-3.396469" y="40.475548" type="priority"/>
    <node id="1165482327" x="-3.400519" y="40.468144" type="priority"/>
    <node id="1165482328" x="-3.393535" y="40.476372" type="priority"/>
    <node id="1195985067" x="-3.398627" y="40.480745" type="priority"/>
    <node id="1195985073" x="-3.408592" y="40.487434" type="unregulated"/>
    <node id="1195985114" x="-3.404936" y="40.480987" type="priority"/>
    <node id="1195985177" x="-3.400302" y="40.481830" type="priority"/>
    <node id="1195985202" x="-3.400503" y="40.480210" type="priority"/>
    <node id="1195985220" x="-3.400814" y="40.481283" type="priority"/>
    <node id="1195985260" x="-3.399960" y="40.480389" type="priority"/>
    <node id="1195985289" x="-3.396721" y="40.485168" type="priority"/>
    <node id="1195985321" x="-3.395336" y="40.483409" type="priority"/>
    <node id="1195985358" x="-3.399237" y="40.481438" type="priority"/>
    <node id="1195985378" x="-3.395871" y="40.486012" type="priority"/>
    <node id="1195985387" x="-3.401153" y="40.480932" type="priority"/>
    <node id="1195985434" x="-3.395917" y="40.484128" type="priority"/>
    <node id="1195985464" x="-3.396337" y="40.484601" type="priority"/>
    <node id="1195985503" x="-3.396211" y="40.484510" type="priority"/>
    <node id="1195985515" x="-3.394195" y="40.484913" type="priority"/>
    <node id="1195985533" x="-3.401515" y="40.484833" type="priority"/>
    <node id="1195985554" x="-3.400541" y="40.481561" type="right_before_left"/>
    <node id="1195985572" x="-3.399176" y="40.481338" type="priority"/>
    <node id="1195985604" x="-3.396179" y="40.484606" type="priority"/>
    <node id="1195985652" x="-3.395689" y="40.484837" type="priority"/>
    <node id="1195985654" x="-3.397018" y="40.484347" type="priority"/>
    <node id="1195985676" x="-3.405180" y="40.481116" type="priority"/>
    <node id="1195985681" x="-3.398997" y="40.481036" type="priority"/>
    <node id="1195985748" x="-3.396305" y="40.485614" type="priority"/>
    <node id="1195985765" x="-3.395134" y="40.485077" type="priority"/>
    <node id="1222026619" x="-3.381915" y="40.490187" type="priority"/>
    <node id="1222026627" x="-3.363738" y="40.514338" type="priority"/>
    <node id="1222026681" x="-3.364327" y="40.512313" type="priority"/>
    <node id="1222026731" x="-3.350684" y="40.514102" type="priority"/>
    <node id="1222026806" x="-3.363937" y="40.513181" type="priority"/>
    <node id="1222026879" x="-3.379697" y="40.486203" type="priority"/>
    <node id="1222026980" x="-3.363692" y="40.513725" type="priority"/>
    <node id="1222027028" x="-3.365139" y="40.510508" type="priority"/>
    <node id="1222027088" x="-3.379746" y="40.486199" type="priority"/>
    <node id="1222027099" x="-3.361860" y="40.514411" type="priority"/>
    <node id="1222027143" x="-3.380286" y="40.486586" type="priority"/>
    <node id="1222027182" x="-3.364253" y="40.512479" type="priority"/>
    <node id="1222027192" x="-3.351321" y="40.512932" type="priority"/>
    <node id="1222027245" x="-3.381542" y="40.490004" type="priority"/>
    <node id="1222027330" x="-3.403308" y="40.479297" type="right_before_left"/>
    <node id="1222027346" x="-3.379828" y="40.486292" type="priority"/>
    <node id="1222027349" x="-3.364221" y="40.512549" type="priority"/>
    <node id="1222027384" x="-3.402883" y="40.479428" type="right_before_left"/>
    <node id="1222027417" x="-3.379706" y="40.486350" type="priority"/>
    <node id="1222027478" x="-3.351726" y="40.514943" type="priority"/>
    <node id="1222027483" x="-3.383655" y="40.483924" type="priority"/>
    <node id="1222027487" x="-3.378686" y="40.489334" type="priority"/>
    <node id="1222027498" x="-3.379912" y="40.486473" type="right_before_left"/>
    <node id="1222027585" x="-3.363614" y="40.513740" type="priority"/>
    <node id="1222027606" x="-3.364721" y="40.511437" type="priority"/>
    <node id="1222113312" x="-3.331933" y="40.506131" type="priority"/>
    <node id="1222113317" x="-3.332806" y="40.506772" type="priority"/>
    <node id="1222113321" x="-3.332339" y="40.507347" type="right_before_left"/>
    <node id="1222113341" x="-3.332951" y="40.506862" type="right_before_left"/>
    <node id="1222113344" x="-3.331401" y="40.506667" type="priority"/>
    <node id="1222113359" x="-3.332206" y="40.507253" type="priority"/>
    <node id="1222113361" x="-3.334256" y="40.505528" type="priority"/>
    <node id="1327924822" x="-3.386089" y="40.492114" type="priority"/>
    <node id="1327924827" x="-3.386085" y="40.492087" type="priority"/>
    <node id="1329797915" x="-3.377576" y="40.491494" type="priority"/>
    <node id="1329797916" x="-3.377541" y="40.493261" type="priority"/>
    <node id="1329797917" x="-3.377667" y="40.492553" type="priority"/>
    <node id="1329797919" x="-3.377953" y="40.491512" type="priority"/>
    <node id="1329797930" x="-3.374485" y="40.488943" type="priority"/>
    <node id="1329797940" x="-3.377751" y="40.491472" type="priority"/>
    <node id="1329797941" x="-3.377378" y="40.492922" type="priority"/>
    <node id="1329797942" x="-3.377547" y="40.491378" type="priority"/>
    <node id="1329797945" x="-3.377763" y="40.491395" type="priority"/>
    <node id="1329797950" x="-3.377642" y="40.491646" type="priority"/>
    <node id="1329797954" x="-3.377683" y="40.493009" type="priority"/>
    <node id="1329797966" x="-3.374035" y="40.488941" type="priority"/>
    <node id="1329797971" x="-3.377321" y="40.491143" type="priority"/>
    <node id="1329797972" x="-3.377586" y="40.492827" type="priority"/>
    <node id="1329797979" x="-3.376068" y="40.490409" type="priority"/>
    <node id="1329797982" x="-3.377685" y="40.491510" type="priority"/>
    <node id="1329861964" x="-3.352471" y="40.504139" type="priority"/>
    <node id="1329861968" x="-3.351823" y="40.504278" type="priority"/>
    <node id="1329861982" x="-3.351845" y="40.504444" type="priority"/>
    <node id="1351112710" x="-3.367745" y="40.489588" type="priority"/>
    <node id="1351112711" x="-3.368376" y="40.490536" type="priority"/>
    <node id="1351112712" x="-3.366838" y="40.489999" type="priority"/>
    <node id="1351118605" x="-3.368240" y="40.488715" type="priority"/>
    <node id="1351118606" x="-3.368390" y="40.488664" type="priority"/>
    <node id="1351118607" x="-3.368455" y="40.489072" type="priority"/>
    <node id="1351118608" x="-3.368529" y="40.488911" type="priority"/>
    <node id="1351118609" x="-3.371360" y="40.489104" type="priority"/>
    <node id="1351118610" x="-3.369969" y="40.488427" type="priority"/>
    <node id="1351118611" x="-3.370875" y="40.488272" type="priority"/>
    <node id="1351118612" x="-3.370723" y="40.488638" type="priority"/>
    <node id="1351118613" x="-3.368591" y="40.489025" type="priority"/>
    <node id="1351118614" x="-3.370033" y="40.488545" type="priority"/>
    <node id="1351118615" x="-3.371694" y="40.488270" type="priority"/>
    <node id="1351118616" x="-3.370754" y="40.489585" type="priority"/>
    <node id="1351118617" x="-3.370437" y="40.488416" type="priority"/>
    <node id="1351118618" x="-3.370935" y="40.489235" type="priority"/>
    <node id="1351118620" x="-3.368438" y="40.490612" type="priority"/>
    <node id="1373121160" x="-3.364181" y="40.485260" type="priority"/>
    <node id="1373121191" x="-3.363475" y="40.485992" type="priority"/>
    <node id="1373121198" x="-3.370929" y="40.488135" type="priority"/>
    <node id="1373121208" x="-3.369830" y="40.488171" type="priority"/>
    <node id="1373121212" x="-3.371512" y="40.488216" type="priority"/>
    <node id="1373121217" x="-3.373350" y="40.488742" type="priority"/>
    <node id="1373121225" x="-3.370654" y="40.488796" type="priority"/>
    <node id="1373121229" x="-3.369224" y="40.490269" type="priority"/>
    <node id="1373121238" x="-3.364418" y="40.490621" type="priority"/>
    <node id="1373121277" x="-3.363214" y="40.493963" type="priority"/>
    <node id="1373121279" x="-3.363322" y="40.493985" type="priority"/>
    <node id="1373121445" x="-3.363424" y="40.495263" type="priority"/>
    <node id="1373121469" x="-3.365298" y="40.495377" type="priority"/>
    <node id="1373121542" x="-3.361967" y="40.495647" type="priority"/>
    <node id="1373121566" x="-3.361987" y="40.495735" type="priority"/>
    <node id="1373121636" x="-3.360755" y="40.495846" type="priority"/>
    <node id="1373121668" x="-3.361051" y="40.495899" type="priority"/>
    <node id="1373121678" x="-3.360783" y="40.495910" type="priority"/>
    <node id="1373121701" x="-3.363008" y="40.495963" type="priority"/>
    <node id="1373121704" x="-3.361079" y="40.495972" type="priority"/>
    <node id="1373121706" x="-3.362914" y="40.495998" type="priority"/>
    <node id="1373121720" x="-3.360538" y="40.496034" type="priority"/>
    <node id="1373121724" x="-3.365735" y="40.496035" type="priority"/>
    <node id="1373121744" x="-3.360561" y="40.496099" type="priority"/>
    <node id="1373121757" x="-3.363769" y="40.496167" type="priority"/>
    <node id="1373121762" x="-3.363078" y="40.496274" type="priority"/>
    <node id="1373121785" x="-3.363708" y="40.497207" type="priority"/>
    <node id="1373121809" x="-3.364378" y="40.497993" type="priority"/>
    <node id="1373121814" x="-3.364243" y="40.498047" type="priority"/>
    <node id="1373121837" x="-3.364551" y="40.498242" type="priority"/>
    <node id="1373121839" x="-3.364255" y="40.498251" type="priority"/>
    <node id="1373121846" x="-3.364417" y="40.498296" type="priority"/>
    <node id="1373121862" x="-3.364697" y="40.498518" type="traffic_light" tl="1373121862"/>
    <node id="1373121865" x="-3.364604" y="40.498549" type="traffic_light" tl="1373121865"/>
    <node id="1373121868" x="-3.364973" y="40.499107" type="priority"/>
    <node id="1373121899" x="-3.365557" y="40.500007" type="priority"/>
    <node id="1373121931" x="-3.365727" y="40.500257" type="priority"/>
    <node id="1373121936" x="-3.366321" y="40.501142" type="priority"/>
    <node id="1373121937" x="-3.366853" y="40.501747" type="traffic_light" tl="1373121937"/>
    <node id="1373121946" x="-3.366765" y="40.501779" type="traffic_light" tl="1373121946"/>
    <node id="1373121955" x="-3.366833" y="40.501951" type="priority"/>
    <node id="1376906268" x="-3.367534" y="40.513165" type="priority"/>
    <node id="1376906270" x="-3.366188" y="40.511828" type="priority"/>
    <node id="1376906275" x="-3.345995" y="40.489860" type="priority"/>
    <node id="1376906277" x="-3.369159" y="40.511566" type="priority"/>
    <node id="1376906292" x="-3.336803" y="40.497681" type="priority"/>
    <node id="1376906300" x="-3.362345" y="40.512760" type="priority"/>
    <node id="1376906303" x="-3.347852" y="40.511922" type="priority"/>
    <node id="1376906315" x="-3.362797" y="40.511752" type="priority"/>
    <node id="1376906320" x="-3.347371" y="40.508878" type="right_before_left"/>
    <node id="1376906326" x="-3.351209" y="40.500750" type="priority"/>
    <node id="1376906375" x="-3.354271" y="40.498297" type="right_before_left"/>
    <node id="1376906381" x="-3.339782" y="40.486039" type="priority"/>
    <node id="1376906385" x="-3.394559" y="40.480052" type="right_before_left"/>
    <node id="1376906387" x="-3.346198" y="40.509560" type="right_before_left"/>