<?xml version="1.0" encoding="UTF-8"?>

<!-- generated on Thu Dec 15 13:55:15 2016 by SUMO netconvert Version 0.27.1
<?xml version="1.0" encoding="UTF-8"?>

<configuration xmlns:xsi="http://www.w3.org/2001/XMLSchema-instance" xsi:noNamespaceSchemaLocation="http://sumo.dlr.de/xsd/netconvertConfiguration.xsd">

    <input>
        <type-files value="netconvert.osm.types.xml"/>
        <osm-files value="../osm/alcalahenares.osm"/>
    </input>

    <output>
        <output-file value="alcalahenares.net.xml"/>
        <plain-output-prefix value="alcalahenares"/>
        <output.street-names value="true"/>
        <output.original-names value="true"/>
    </output>

    <projection>
        <proj.utm value="true"/>
        <proj.plain-geo value="true"/>
    </projection>

    <edge_removal>
        <remove-edges.by-type value="highway.bridleway,highway.cycleway,highway.footway,highway.ford,highway.path,highway.pedestrian,highway.stairs,highway.step,highway.steps,highway.track,railway.light_rail,railway.preserved,railway.rail,railway.subway,railway.tram"/>
    </edge_removal>

</configuration>
-->

<tlLogics version="0.27" xmlns:xsi="http://www.w3.org/2001/XMLSchema-instance" xsi:noNamespaceSchemaLocation="http://sumo.dlr.de/xsd/tllogic_file.xsd">
    <tlLogic id="1060458730" type="static" programID="0" offset="0">
        <phase duration="86" state="GG"/>
        <phase duration="4" state="yy"/>
    </tlLogic>
    <tlLogic id="1373121862" type="static" programID="0" offset="0">
        <phase duration="81" state="GG"/>
        <phase duration="9" state="yy"/>
    </tlLogic>
    <tlLogic id="1373121865" type="static" programID="0" offset="0">
        <phase duration="81" state="GG"/>
        <phase duration="9" state="yy"/>
    </tlLogic>
    <tlLogic id="1373121937" type="static" programID="0" offset="0">
        <phase duration="81" state="GG"/>
        <phase duration="9" state="yy"/>
    </tlLogic>
    <tlLogic id="1373121946" type="static" programID="0" offset="0">
        <phase duration="81" state="GG"/>
        <phase duration="9" state="yy"/>
    </tlLogic>
    <tlLogic id="1472472940" type="static" programID="0" offset="0">
        <phase duration="86" state="G"/>
        <phase duration="4" state="y"/>
    </tlLogic>
    <tlLogic id="1472473123" type="static" programID="0" offset="0">
        <phase duration="86" state="G"/>
        <phase duration="4" state="y"/>
    </tlLogic>
    <tlLogic id="1734539853" type="static" programID="0" offset="0">
        <phase duration="83" state="G"/>
        <phase duration="7" state="y"/>
    </tlLogic>
    <tlLogic id="1849049533" type="static" programID="0" offset="0">
        <phase duration="87" state="GgGg"/>
        <phase duration="3" state="yyyy"/>
    </tlLogic>
    <tlLogic id="1895230832" type="static" programID="0" offset="0">
        <phase duration="85" state="G"/>
        <phase duration="5" state="y"/>
    </tlLogic>
    <tlLogic id="2069905589" type="static" programID="0" offset="0">
        <phase duration="83" state="GgGg"/>
        <phase duration="7" state="yyyy"/>
    </tlLogic>
    <tlLogic id="209055867" type="static" programID="0" offset="0">
        <phase duration="86" state="GG"/>
        <phase duration="4" state="yy"/>
    </tlLogic>
    <tlLogic id="209055910" type="static" programID="0" offset="0">
        <phase duration="32" state="GggGGgrrr"/>
        <phase duration="7" state="yggyygrrr"/>
        <phase duration="6" state="rGGrrGrrr"/>
        <phase duration="7" state="ryyrryrrr"/>
        <phase duration="31" state="rrrrrrGGG"/>
        <phase duration="7" state="rrrrrryyy"/>
    </tlLogic>
    <tlLogic id="209055943" type="static" programID="0" offset="0">
        <phase duration="83" state="G"/>
        <phase duration="7" state="y"/>
    </tlLogic>
    <tlLogic id="2273234310" type="static" programID="0" offset="0">
        <phase duration="86" state="GgGg"/>
        <phase duration="4" state="yyyy"/>
    </tlLogic>
    <tlLogic id="259094835" type="static" programID="0" offset="0">
        <phase duration="36" state="GGggrrrGGGg"/>
        <phase duration="4" state="yyggrrryyyg"/>
        <phase duration="6" state="rrGGrrrrrrG"/>
        <phase duration="4" state="rryyrrrrrry"/>
        <phase duration="36" state="rrrrGGgGrrr"/>
        <phase duration="4" state="rrrryyyyrrr"/>
    </tlLogic>
    <tlLogic id="259133666" type="static" programID="0" offset="0">
        <phase duration="31" state="rrrrGGggrrrrGGgg"/>
        <phase duration="4" state="rrrryyggrrrryygg"/>
        <phase duration="6" state="rrrrrrGGrrrrrrGG"/>
        <phase duration="4" state="rrrrrryyrrrrrryy"/>
        <phase duration="31" state="GGggrrrrGGggrrrr"/>
        <phase duration="4" state="yyggrrrryyggrrrr"/>
        <phase duration="6" state="rrGGrrrrrrGGrrrr"/>
        <phase duration="4" state="rryyrrrrrryyrrrr"/>
    </tlLogic>
    <tlLogic id="259134681" type="static" programID="0" offset="0">
        <phase duration="81" state="GG"/>
        <phase duration="9" state="yy"/>
    </tlLogic>
    <tlLogic id="259134682" type="static" programID="0" offset="0">
        <phase duration="87" state="GG"/>
        <phase duration="3" state="yy"/>
    </tlLogic>
    <tlLogic id="259134684" type="static" programID="0" offset="0">
        <phase duration="87" state="GG"/>
        <phase duration="3" state="yy"/>
    </tlLogic>
    <tlLogic id="259134685" type="static" programID="0" offset="0">
        <phase duration="81" state="GG"/>
        <phase duration="9" state="yy"/>
    </tlLogic>
    <tlLogic id="3354599068" type="static" programID="0" offset="0">
        <phase duration="87" state="GgGg"/>
        <phase duration="3" state="yyyy"/>
    </tlLogic>
    <tlLogic id="3611543398" type="static" programID="0" offset="0">
        <phase duration="83" state="GgGg"/>
        <phase duration="7" state="yyyy"/>
    </tlLogic>
    <tlLogic id="3611543399" type="static" programID="0" offset="0">
        <phase duration="83" state="GgGg"/>
        <phase duration="7" state="yyyy"/>
    </tlLogic>
    <tlLogic id="3611543415" type="static" programID="0" offset="0">
        <phase duration="83" state="G"/>
        <phase duration="7" state="y"/>
    </tlLogic>
    <tlLogic id="3627841236" type="static" programID="0" offset="0">
        <phase duration="83" state="GgGg"/>
        <phase duration="7" state="yyyy"/>
    </tlLogic>
    <tlLogic id="3627841240" type="static" programID="0" offset="0">
        <phase duration="86" state="GgGg"/>
        <phase duration="4" state="yyyy"/>
    </tlLogic>
    <tlLogic id="3852267775" type="static" programID="0" offset="0">
        <phase duration="87" state="GG"/>
        <phase duration="3" state="yy"/>
    </tlLogic>
    <tlLogic id="3852969478" type="static" programID="0" offset="0">
        <phase duration="86" state="GG"/>
        <phase duration="4" state="yy"/>
    </tlLogic>
    <tlLogic id="3853097663" type="static" programID="0" offset="0">
        <phase duration="86" state="GG"/>
        <phase duration="4" state="yy"/>
    </tlLogic>
    <tlLogic id="3853111751" type="static" programID="0" offset="0">
        <phase duration="83" state="G"/>
        <phase duration="7" state="y"/>
    </tlLogic>
    <tlLogic id="3853113776" type="static" programID="0" offset="0">
        <phase duration="83" state="G"/>
        <phase duration="7" state="y"/>
    </tlLogic>
    <tlLogic id="3853123611" type="static" programID="0" offset="0">
        <phase duration="86" state="G"/>
        <phase duration="4" state="y"/>
    </tlLogic>
    <tlLogic id="3853123612" type="static" programID="0" offset="0">
        <phase duration="86" state="G"/>
        <phase duration="4" state="y"/>
    </tlLogic>
    <tlLogic id="3853306105" type="static" programID="0" offset="0">
        <phase duration="87" state="GG"/>
        <phase duration="3" state="yy"/>
    </tlLogic>
    <tlLogic id="3853321324" type="static" programID="0" offset="0">
        <phase duration="86" state="GG"/>
        <phase duration="4" state="yy"/>
    </tlLogic>
    <tlLogic id="3857052857" type="static" programID="0" offset="0">
        <phase duration="86" state="G"/>
        <phase duration="4" state="y"/>
    </tlLogic>
    <tlLogic id="3857145469" type="static" programID="0" offset="0">
        <phase duration="81" state="GG"/>
        <phase duration="9" state="yy"/>
    </tlLogic>
    <tlLogic id="3857145470" type="static" programID="0" offset="0">
        <phase duration="81" state="GG"/>
        <phase duration="9" state="yy"/>
    </tlLogic>
    <tlLogic id="3857145471" type="static" programID="0" offset="0">
        <phase duration="81" state="GG"/>
        <phase duration="9" state="yy"/>
    </tlLogic>
    <tlLogic id="3857145472" type="static" programID="0" offset="0">
        <phase duration="81" state="GG"/>
        <phase duration="9" state="yy"/>
    </tlLogic>
    <tlLogic id="3861165175" type="static" programID="0" offset="0">
        <phase duration="86" state="GgGg"/>
        <phase duration="4" state="yyyy"/>
    </tlLogic>
    <tlLogic id="3861165271" type="static" programID="0" offset="0">
        <phase duration="86" state="GgGg"/>
        <phase duration="4" state="yyyy"/>
    </tlLogic>
    <tlLogic id="3861171192" type="static" programID="0" offset="0">
        <phase duration="87" state="GG"/>
        <phase duration="3" state="yy"/>
    </tlLogic>
    <tlLogic id="3861171193" type="static" programID="0" offset="0">
        <phase duration="87" state="G"/>
        <phase duration="3" state="y"/>
    </tlLogic>
    <tlLogic id="3861171194" type="static" programID="0" offset="0">
        <phase duration="81" state="GGgGGg"/>
        <phase duration="9" state="yyyyyy"/>
    </tlLogic>
    <tlLogic id="3861175338" type="static" programID="0" offset="0">
        <phase duration="81" state="GG"/>
        <phase duration="9" state="yy"/>
    </tlLogic>
    <tlLogic id="3861175339" type="static" programID="0" offset="0">
        <phase duration="81" state="GG"/>
        <phase duration="9" state="yy"/>
    </tlLogic>
    <tlLogic id="3861194095" type="static" programID="0" offset="0">
        <phase duration="86" state="GG"/>
        <phase duration="4" state="yy"/>
    </tlLogic>
    <tlLogic id="3861194096" type="static" programID="0" offset="0">
        <phase duration="86" state="GG"/>
        <phase duration="4" state="yy"/>
    </tlLogic>
    <tlLogic id="3861194097" type="static" programID="0" offset="0">
        <phase duration="86" state="GG"/>
        <phase duration="4" state="yy"/>
    </tlLogic>
    <tlLogic id="3861194098" type="static" programID="0" offset="0">
        <phase duration="86" state="GG"/>
        <phase duration="4" state="yy"/>
    </tlLogic>
    <tlLogic id="3861194099" type="static" programID="0" offset="0">
        <phase duration="86" state="GG"/>
        <phase duration="4" state="yy"/>
    </tlLogic>
    <tlLogic id="3861194100" type="static" programID="0" offset="0">
        <phase duration="86" state="GG"/>
        <phase duration="4" state="yy"/>
    </tlLogic>
    <tlLogic id="3861194101" type="static" programID="0" offset="0">
        <phase duration="86" state="GG"/>
        <phase duration="4" state="yy"/>
    </tlLogic>
    <tlLogic id="3861194102" type="static" programID="0" offset="0">
        <phase duration="86" state="GG"/>
        <phase duration="4" state="yy"/>
    </tlLogic>
    <tlLogic id="3861194103" type="static" programID="0" offset="0">
        <phase duration="86" state="GG"/>
        <phase duration="4" state="yy"/>
    </tlLogic>
    <tlLogic id="3861194104" type="static" programID="0" offset="0">
        <phase duration="86" state="GG"/>
        <phase duration="4" state="yy"/>
    </tlLogic>
    <tlLogic id="3861194105" type="static" programID="0" offset="0">
        <phase duration="86" state="GGgGGg"/>
        <phase duration="4" state="yyyyyy"/>
    </tlLogic>
    <tlLogic id="3861194106" type="static" programID="0" offset="0">
        <phase duration="86" state="GG"/>
        <phase duration="4" state="yy"/>
    </tlLogic>
    <tlLogic id="3861194107" type="static" programID="0" offset="0">
        <phase duration="86" state="GG"/>
        <phase duration="4" state="yy"/>
    </tlLogic>
    <tlLogic id="3861194108" type="static" programID="0" offset="0">
        <phase duration="86" state="GG"/>
        <phase duration="4" state="yy"/>
    </tlLogic>
    <tlLogic id="3861194109" type="static" programID="0" offset="0">
        <phase duration="86" state="GG"/>
        <phase duration="4" state="yy"/>
    </tlLogic>
    <tlLogic id="3861248558" type="static" programID="0" offset="0">
        <phase duration="83" state="GgGg"/>
        <phase duration="7" state="yyyy"/>
    </tlLogic>
    <tlLogic id="3972432544" type="static" programID="0" offset="0">
        <phase duration="86" state="GgGg"/>
        <phase duration="4" state="yyyy"/>
    </tlLogic>
    <tlLogic id="3972432550" type="static" programID="0" offset="0">
        <phase duration="86" state="GgGg"/>
        <phase duration="4" state="yyyy"/>
    </tlLogic>
    <tlLogic id="3987063842" type="static" programID="0" offset="0">
        <phase duration="81" state="GG"/>
        <phase duration="9" state="yy"/>
    </tlLogic>
    <tlLogic id="765880497" type="static" programID="0" offset="0">
        <phase duration="38" state="GGrr"/>
        <phase duration="7" state="yyrr"/>
        <phase duration="38" state="rrGG"/>
        <phase duration="7" state="rryy"/>
    </tlLogic>
    <tlLogic id="810124835" type="static" programID="0" offset="0">
        <phase duration="83" state="G"/>
        <phase duration="7" state="y"/>
    </tlLogic>

    <connection from="-161482080#6" to="-161482080#5" fromLane="0" toLane="0" tl="3611543399" linkIndex="2"/>
    <connection from="-161482080#6" to="161482080#6" fromLane="0" toLane="0" tl="3611543399" linkIndex="3"/>
    <connection from="-164049083#16" to="-164049083#15" fromLane="0" toLane="0" tl="3611543398" linkIndex="0"/>
    <connection from="-164049083#16" to="164049083#16" fromLane="0" toLane="0" tl="3611543398" linkIndex="1"/>
    <connection from="-174188603#10" to="-174188603#9" fromLane="0" toLane="0" tl="1849049533" linkIndex="0"/>
    <connection from="-174188603#10" to="174188603#10" fromLane="0" toLane="0" tl="1849049533" linkIndex="1"/>
    <connection from="-227354784#2" to="-227354784#1" fromLane="0" toLane="0" tl="3861171194" linkIndex="3"/>
    <connection from="-227354784#2" to="-227354784#1" fromLane="1" toLane="1" tl="3861171194" linkIndex="4"/>
    <connection from="-227354784#2" to="227354784#2" fromLane="1" toLane="1" tl="3861171194" linkIndex="5"/>
    <connection from="-23870217#1" to="-23870217#0" fromLane="0" toLane="0" tl="3972432550" linkIndex="2"/>
    <connection from="-23870217#1" to="23870217#1" fromLane="0" toLane="0" tl="3972432550" linkIndex="3"/>
    <connection from="-23907627#1" to="-23907627#0" fromLane="0" toLane="0" tl="3861248558" linkIndex="0"/>
    <connection from="-23907627#1" to="23907627#1" fromLane="0" toLane="0" tl="3861248558" linkIndex="1"/>
    <connection from="-23907664#1" to="-23907664#0" fromLane="0" toLane="0" tl="3354599068" linkIndex="0"/>
    <connection from="-23907664#1" to="23907664#1" fromLane="0" toLane="0" tl="3354599068" linkIndex="1"/>
    <connection from="-23919171#2" to="-23919171#1" fromLane="0" toLane="0" tl="2273234310" linkIndex="0"/>
    <connection from="-23919171#2" to="23919171#2" fromLane="0" toLane="0" tl="2273234310" linkIndex="1"/>
    <connection from="-23971557#2" to="-23971579#0" fromLane="0" toLane="0" tl="259133666" linkIndex="12"/>
    <connection from="-23971557#2" to="-23971557#1" fromLane="0" toLane="0" tl="259133666" linkIndex="13"/>
    <connection from="-23971557#2" to="23971579#1" fromLane="0" toLane="0" tl="259133666" linkIndex="14"/>
    <connection from="-23971557#2" to="23971557#2" fromLane="0" toLane="0" tl="259133666" linkIndex="15"/>
    <connection from="-23971579#1" to="23971557#2" fromLane="0" toLane="0" tl="259133666" linkIndex="0"/>
    <connection from="-23971579#1" to="-23971579#0" fromLane="0" toLane="0" tl="259133666" linkIndex="1"/>
    <connection from="-23971579#1" to="-23971557#1" fromLane="0" toLane="0" tl="259133666" linkIndex="2"/>
    <connection from="-23971579#1" to="23971579#1" fromLane="0" toLane="0" tl="259133666" linkIndex="3"/>
    <connection from="-256585719#1" to="-256585719#0" fromLane="0" toLane="0" tl="3861165175" linkIndex="0"/>
    <connection from="-256585719#1" to="256585719#1" fromLane="0" toLane="0" tl="3861165175" linkIndex="1"/>
    <connection from="-256585719#7" to="-256585719#6" fromLane="0" toLane="0" tl="3861165271" linkIndex="0"/>
    <connection from="-256585719#7" to="256585719#7" fromLane="0" toLane="0" tl="3861165271" linkIndex="1"/>
    <connection from="-259222625#2" to="-259222625#1" fromLane="0" toLane="0" tl="3627841240" linkIndex="0"/>
    <connection from="-259222625#2" to="259222625#2" fromLane="0" toLane="0" tl="3627841240" linkIndex="1"/>
    <connection from="-28343728#4" to="-28343728#3" fromLane="0" toLane="0" tl="3972432544" linkIndex="2"/>
    <connection from="-28343728#4" to="28343728#4" fromLane="0" toLane="0" tl="3972432544" linkIndex="3"/>
    <connection from="-304149611#2" to="-304149611#1" fromLane="0" toLane="0" tl="3861194105" linkIndex="3"/>
    <connection from="-304149611#2" to="-304149611#1" fromLane="1" toLane="1" tl="3861194105" linkIndex="4"/>
    <connection from="-304149611#2" to="304149611#2" fromLane="1" toLane="1" tl="3861194105" linkIndex="5"/>
    <connection from="-32402199#1" to="-32402199#0" fromLane="0" toLane="0" tl="2069905589" linkIndex="2"/>
    <connection from="-32402199#1" to="32402199#1" fromLane="0" toLane="0" tl="2069905589" linkIndex="3"/>
    <connection from="-408880654#1" to="-408880654#0" fromLane="0" toLane="0" tl="209055910" linkIndex="0"/>
    <connection from="-408880654#1" to="61312526#1" fromLane="0" toLane="0" tl="209055910" linkIndex="1"/>
    <connection from="-408880654#1" to="408880654#1" fromLane="0" toLane="0" tl="209055910" linkIndex="2"/>
    <connection from="-61312536#3" to="-61312536#2" fromLane="0" toLane="0" tl="3627841236" linkIndex="2"/>
    <connection from="-61312536#3" to="61312536#3" fromLane="0" toLane="0" tl="3627841236" linkIndex="3"/>
    <connection from="-67091822#2" to="-23971639" fromLane="0" toLane="0" tl="259094835" linkIndex="7"/>
    <connection from="-67091822#2" to="-67091822#1" fromLane="0" toLane="0" tl="259094835" linkIndex="8"/>
    <connection from="-67091822#2" to="-67091822#1" fromLane="1" toLane="1" tl="259094835" linkIndex="9"/>
    <connection from="-67091822#2" to="67091822#2" fromLane="1" toLane="1" tl="259094835" linkIndex="10"/>
    <connection from="123021266#1" to="123021266#2" fromLane="0" toLane="0" tl="1373121946" linkIndex="0"/>
    <connection from="123021266#1" to="123021266#2" fromLane="1" toLane="1" tl="1373121946" linkIndex="1"/>
    <connection from="123021267#0" to="123021267#1" fromLane="0" toLane="0" tl="1373121865" linkIndex="0"/>
    <connection from="123021267#0" to="123021267#1" fromLane="1" toLane="1" tl="1373121865" linkIndex="1"/>
    <connection from="125234340#0" to="125234340#1" fromLane="0" toLane="0" tl="3852267775" linkIndex="0"/>
    <connection from="125234340#0" to="125234340#1" fromLane="1" toLane="1" tl="3852267775" linkIndex="1"/>
    <connection from="125234341#1" to="125234341#2" fromLane="0" toLane="0" tl="3853123612" linkIndex="0"/>
    <connection from="125234341#3" to="125234341#4" fromLane="0" toLane="0" tl="3853123611" linkIndex="0"/>
    <connection from="133787497#0" to="133787497#1" fromLane="0" toLane="0" tl="1472472940" linkIndex="0"/>
    <connection from="151292453#1" to="151292453#2" fromLane="0" toLane="0" tl="3857145469" linkIndex="0"/>
    <connection from="151292453#1" to="151292453#2" fromLane="1" toLane="1" tl="3857145469" linkIndex="1"/>
    <connection from="151292453#10" to="151292453#11" fromLane="0" toLane="0" tl="3857145471" linkIndex="0"/>
    <connection from="151292453#10" to="151292453#11" fromLane="1" toLane="1" tl="3857145471" linkIndex="1"/>
    <connection from="151292464#0" to="151292464#1" fromLane="0" toLane="0" tl="3861194109" linkIndex="0"/>
    <connection from="151292464#0" to="151292464#1" fromLane="1" toLane="1" tl="3861194109" linkIndex="1"/>
    <connection from="151292464#2" to="151292464#3" fromLane="0" toLane="0" tl="3861194107" linkIndex="0"/>
    <connection from="151292464#2" to="151292464#3" fromLane="1" toLane="1" tl="3861194107" linkIndex="1"/>
    <connection from="151292465#0" to="151292465#1" fromLane="0" toLane="0" tl="3861194108" linkIndex="0"/>
    <connection from="151292465#0" to="151292465#1" fromLane="1" toLane="1" tl="3861194108" linkIndex="1"/>
    <connection from="151292465#1" to="151292465#2" fromLane="0" toLane="0" tl="3861194106" linkIndex="0"/>
    <connection from="151292465#1" to="151292465#2" fromLane="1" toLane="1" tl="3861194106" linkIndex="1"/>
    <connection from="161482080#5" to="161482080#6" fromLane="0" toLane="0" tl="3611543399" linkIndex="0"/>
    <connection from="161482080#5" to="-161482080#5" fromLane="0" toLane="0" tl="3611543399" linkIndex="1"/>
    <connection from="161484616#0" to="161484616#1" fromLane="0" toLane="0" tl="1734539853" linkIndex="0"/>
    <connection from="164049083#15" to="164049083#16" fromLane="0" toLane="0" tl="3611543398" linkIndex="2"/>
    <connection from="164049083#15" to="-164049083#15" fromLane="0" toLane="0" tl="3611543398" linkIndex="3"/>
    <connection from="174188603#9" to="174188603#10" fromLane="0" toLane="0" tl="1849049533" linkIndex="2"/>
    <connection from="174188603#9" to="-174188603#9" fromLane="0" toLane="0" tl="1849049533" linkIndex="3"/>
    <connection from="174188604#0" to="174188604#1" fromLane="0" toLane="0" tl="3861194097" linkIndex="0"/>
    <connection from="174188604#0" to="174188604#1" fromLane="1" toLane="1" tl="3861194097" linkIndex="1"/>
    <connection from="174188604#1" to="174188604#2" fromLane="0" toLane="0" tl="3861194102" linkIndex="0"/>
    <connection from="174188604#1" to="174188604#2" fromLane="1" toLane="1" tl="3861194102" linkIndex="1"/>
    <connection from="174188604#2" to="174188604#3" fromLane="0" toLane="0" tl="3861194096" linkIndex="0"/>
    <connection from="174188604#2" to="174188604#3" fromLane="1" toLane="1" tl="3861194096" linkIndex="1"/>
    <connection from="179175861#0" to="179175861#1" fromLane="0" toLane="0" tl="1895230832" linkIndex="0"/>
    <connection from="183334637#0" to="183334637#1" fromLane="0" toLane="0" tl="3852969478" linkIndex="0"/>
    <connection from="183334637#0" to="183334637#1" fromLane="1" toLane="1" tl="3852969478" linkIndex="1"/>
    <connection from="19916361#0" to="19916361#1" fromLane="0" toLane="0" tl="1060458730" linkIndex="0"/>
    <connection from="19916361#0" to="19916361#1" fromLane="1" toLane="1" tl="1060458730" linkIndex="1"/>
    <connection from="227354784#1" to="227354784#2" fromLane="0" toLane="0" tl="3861171194" linkIndex="0"/>
    <connection from="227354784#1" to="227354784#2" fromLane="1" toLane="1" tl="3861171194" linkIndex="1"/>
    <connection from="227354784#1" to="-227354784#1" fromLane="1" toLane="1" tl="3861171194" linkIndex="2"/>
    <connection from="23858590#0" to="23858590#1" fromLane="0" toLane="0" tl="1472473123" linkIndex="0"/>
    <connection from="23870217#0" to="23870217#1" fromLane="0" toLane="0" tl="3972432550" linkIndex="0"/>
    <connection from="23870217#0" to="-23870217#0" fromLane="0" toLane="0" tl="3972432550" linkIndex="1"/>
    <connection from="23907590#0" to="23907590#1" fromLane="0" toLane="0" tl="1373121937" linkIndex="0"/>
    <connection from="23907590#0" to="23907590#1" fromLane="1" toLane="1" tl="1373121937" linkIndex="1"/>
    <connection from="23907627#0" to="23907627#1" fromLane="0" toLane="0" tl="3861248558" linkIndex="2"/>
    <connection from="23907627#0" to="-23907627#0" fromLane="0" toLane="0" tl="3861248558" linkIndex="3"/>
    <connection from="23907662#0" to="23907662#1" fromLane="0" toLane="0" tl="259134681" linkIndex="0"/>
    <connection from="23907662#0" to="23907662#1" fromLane="1" toLane="1" tl="259134681" linkIndex="1"/>
    <connection from="23907663#0" to="23907663#1" fromLane="0" toLane="0" tl="259134684" linkIndex="0"/>
    <connection from="23907663#0" to="23907663#1" fromLane="1" toLane="1" tl="259134684" linkIndex="1"/>
    <connection from="23907664#0" to="23907664#1" fromLane="0" toLane="0" tl="3354599068" linkIndex="2"/>
    <connection from="23907664#0" to="-23907664#0" fromLane="0" toLane="0" tl="3354599068" linkIndex="3"/>
    <connection from="23919171#1" to="23919171#2" fromLane="0" toLane="0" tl="2273234310" linkIndex="2"/>
    <connection from="23919171#1" to="-23919171#1" fromLane="0" toLane="0" tl="2273234310" linkIndex="3"/>
    <connection from="23957339#1" to="23957339#2" fromLane="0" toLane="0" tl="1373121862" linkIndex="0"/>
    <connection from="23957339#1" to="23957339#2" fromLane="1" toLane="1" tl="1373121862" linkIndex="1"/>
    <connection from="23971557#1" to="23971579#1" fromLane="0" toLane="0" tl="259133666" linkIndex="4"/>
    <connection from="23971557#1" to="23971557#2" fromLane="0" toLane="0" tl="259133666" linkIndex="5"/>
    <connection from="23971557#1" to="-23971579#0" fromLane="0" toLane="0" tl="259133666" linkIndex="6"/>
    <connection from="23971557#1" to="-23971557#1" fromLane="0" toLane="0" tl="259133666" linkIndex="7"/>
    <connection from="23971579#0" to="-23971557#1" fromLane="0" toLane="0" tl="259133666" linkIndex="8"/>
    <connection from="23971579#0" to="23971579#1" fromLane="0" toLane="0" tl="259133666" linkIndex="9"/>
    <connection from="23971579#0" to="23971557#2" fromLane="0" toLane="0" tl="259133666" linkIndex="10"/>
    <connection from="23971579#0" to="-23971579#0" fromLane="0" toLane="0" tl="259133666" linkIndex="11"/>
    <connection from="23971639" to="-67091822#1" fromLane="0" toLane="0" tl="259094835" linkIndex="4"/>
    <connection from="23971639" to="67091822#2" fromLane="0" toLane="1" tl="259094835" linkIndex="5"/>
    <connection from="23971639" to="-23971639" fromLane="0" toLane="0" tl="259094835" linkIndex="6"/>
    <connection from="254407692#0" to="254407692#1" fromLane="0" toLane="0" tl="3861171192" linkIndex="0"/>
    <connection from="254407692#0" to="254407692#1" fromLane="1" toLane="1" tl="3861171192" linkIndex="1"/>
    <connection from="256585718#1" to="256585718#2" fromLane="0" toLane="0" tl="3857145472" linkIndex="0"/>
    <connection from="256585718#1" to="256585718#2" fromLane="1" toLane="1" tl="3857145472" linkIndex="1"/>
    <connection from="256585719#0" to="256585719#1" fromLane="0" toLane="0" tl="3861165175" linkIndex="2"/>
    <connection from="256585719#0" to="-256585719#0" fromLane="0" toLane="0" tl="3861165175" linkIndex="3"/>
    <connection from="256585719#6" to="256585719#7" fromLane="0" toLane="0" tl="3861165271" linkIndex="2"/>
    <connection from="256585719#6" to="-256585719#6" fromLane="0" toLane="0" tl="3861165271" linkIndex="3"/>
    <connection from="259222625#1" to="259222625#2" fromLane="0" toLane="0" tl="3627841240" linkIndex="2"/>
    <connection from="259222625#1" to="-259222625#1" fromLane="0" toLane="0" tl="3627841240" linkIndex="3"/>
    <connection from="28343728#3" to="28343728#4" fromLane="0" toLane="0" tl="3972432544" linkIndex="0"/>
    <connection from="28343728#3" to="-28343728#3" fromLane="0" toLane="0" tl="3972432544" linkIndex="1"/>
    <connection from="28343768#6" to="28343768#7" fromLane="0" toLane="0" tl="3861171193" linkIndex="0"/>
    <connection from="304149611#1" to="304149611#2" fromLane="0" toLane="0" tl="3861194105" linkIndex="0"/>
    <connection from="304149611#1" to="304149611#2" fromLane="1" toLane="1" tl="3861194105" linkIndex="1"/>
    <connection from="304149611#1" to="-304149611#1" fromLane="1" toLane="1" tl="3861194105" linkIndex="2"/>
    <connection from="304149612#0" to="304149612#1" fromLane="0" toLane="0" tl="3861194099" linkIndex="0"/>
    <connection from="304149612#0" to="304149612#1" fromLane="1" toLane="1" tl="3861194099" linkIndex="1"/>
    <connection from="304149612#1" to="304149612#2" fromLane="0" toLane="0" tl="3861194103" linkIndex="0"/>
    <connection from="304149612#1" to="304149612#2" fromLane="1" toLane="1" tl="3861194103" linkIndex="1"/>
    <connection from="32401851#0" to="32401851#1" fromLane="0" toLane="0" tl="209055943" linkIndex="0"/>
    <connection from="32402199#0" to="32402199#1" fromLane="0" toLane="0" tl="2069905589" linkIndex="0"/>
    <connection from="32402199#0" to="-32402199#0" fromLane="0" toLane="0" tl="2069905589" linkIndex="1"/>
    <connection from="35968928#0" to="35968928#1" fromLane="0" toLane="0" tl="259134685" linkIndex="0"/>
    <connection from="35968928#0" to="35968928#1" fromLane="1" toLane="1" tl="259134685" linkIndex="1"/>
    <connection from="35968929#0" to="35968929#1" fromLane="0" toLane="0" tl="259134682" linkIndex="0"/>
    <connection from="35968929#0" to="35968929#1" fromLane="1" toLane="1" tl="259134682" linkIndex="1"/>
    <connection from="382134171#0" to="382134171#1" fromLane="0" toLane="0" tl="3853321324" linkIndex="0"/>
    <connection from="382134171#0" to="382134171#1" fromLane="1" toLane="1" tl="3853321324" linkIndex="1"/>
    <connection from="395906341#0" to="395906341#1" fromLane="0" toLane="0" tl="3987063842" linkIndex="0"/>
    <connection from="395906341#0" to="395906341#1" fromLane="1" toLane="1" tl="3987063842" linkIndex="1"/>
    <connection from="395906342#1" to="395906342#2" fromLane="0" toLane="0" tl="3861175338" linkIndex="0"/>
    <connection from="395906342#1" to="395906342#2" fromLane="1" toLane="1" tl="3861175338" linkIndex="1"/>
    <connection from="395906342#2" to="395906342#3" fromLane="0" toLane="0" tl="3861175339" linkIndex="0"/>