<?xml version="1.0" encoding="UTF-8"?>

<routes xmlns:xsi="http://www.w3.org/2001/XMLSchema-instance" xsi:noNamespaceSchemaLocation="http://sumo.dlr.de/xsd/routes_file.xsd">

<!-- xxxxxxxxxxxx POLICEMEN XXXXXXXXXXXXXX -->
    <trip depart="607.38" id="110044"  from="71213423#0" to="151292466#1" fromTaz="1120005" toTaz="1120003" departLane="best" departSpeed="0" />
    <trip depart="619.60" id="110029"  from="71213423#0" to="151292466#1" fromTaz="1120005" toTaz="1120003" departLane="best" departSpeed="0" />
    <trip depart="625.67" id="110019"  from="71213423#0" to="151292466#1" fromTaz="1120005" toTaz="1120003" departLane="best" departSpeed="0" />
    <trip depart="641.55" id="110042"  from="71213423#0" to="151292466#1" fromTaz="1120005" toTaz="1120003" departLane="best" departSpeed="0" />
    <trip depart="657.85" id="110049"  from="71213423#0" to="151292466#1" fromTaz="1120005" toTaz="1120003" departLane="best" departSpeed="0" />
    <trip depart="672.60" id="110033"  from="71213423#0" to="151292466#1" fromTaz="1120005" toTaz="1120003" departLane="best" departSpeed="0" />
    <trip depart="701.67" id="110045"  from="71213423#0" to="151292466#1" fromTaz="1120005" toTaz="1120003" departLane="best" departSpeed="0" />
    <trip depart="751.17" id="110016"  from="71213423#0" to="151292466#1" fromTaz="1120005" toTaz="1120003" departLane="best" departSpeed="0" />
    <trip depart="762.06" id="110011"  from="71213423#0" to="151292466#1" fromTaz="1120005" toTaz="1120003" departLane="best" departSpeed="0" />
    <trip depart="767.24" id="110037"  from="71213423#0" to="151292466#1" fromTaz="1120005" toTaz="1120003" departLane="best" departSpeed="0" />
    <trip depart="779.74" id="110036"  from="71213423#0" to="151292466#1" fromTaz="1120005" toTaz="1120003" departLane="best" departSpeed="0" />
    <trip depart="782.59" id="110035"  from="71213423#0" to="151292466#1" fromTaz="1120005" toTaz="1120003" departLane="best" departSpeed="0" />
    <trip depart="816.11" id="110028"  from="71213423#0" to="151292466#1" fromTaz="1120005" toTaz="1120003" departLane="best" departSpeed="0" />
    <trip depart="862.10" id="110040"  from="71213423#0" to="151292466#1" fromTaz="1120005" toTaz="1120003" departLane="best" departSpeed="0" />
    <trip depart="905.79" id="110046"  from="71213423#0" to="151292466#1" fromTaz="1120005" toTaz="1120003" departLane="best" departSpeed="0" />
    <trip depart="945.65" id="110022"  from="71213423#0" to="151292466#1" fromTaz="1120005" toTaz="1120003" departLane="best" departSpeed="0" />
    <trip depart="952.32" id="110021"  from="71213423#0" to="151292466#1" fromTaz="1120005" toTaz="1120003" departLane="best" departSpeed="0" />
    <trip depart="990.93" id="11000"  from="71213423#0" to="151292466#1" fromTaz="1120005" toTaz="1120003" departLane="best" departSpeed="0" />
    <trip depart="1010.45" id="11005"  from="71213423#0" to="151292466#1" fromTaz="1120005" toTaz="1120003" departLane="best" departSpeed="0" />
    <trip depart="1010.68" id="110041"  from="71213423#0" to="151292466#1" fromTaz="1120005" toTaz="1120003" departLane="best" departSpeed="0" />
    <trip depart="1023.68" id="110032"  from="71213423#0" to="151292466#1" fromTaz="1120005" toTaz="1120003" departLane="best" departSpeed="0" />
    <trip depart="1076.94" id="11001"  from="71213423#0" to="151292466#1" fromTaz="1120005" toTaz="1120003" departLane="best" departSpeed="0" />
    <trip depart="1142.30" id="110025"  from="71213423#0" to="151292466#1" fromTaz="1120005" toTaz="1120003" departLane="best" departSpeed="0" />
    <trip depart="1254.29" id="11003"  from="71213423#0" to="151292466#1" fromTaz="1120005" toTaz="1120003" departLane="best" departSpeed="0" />
    <trip depart="1266.67" id="110015"  from="71213423#0" to="151292466#1" fromTaz="1120005" toTaz="1120003" departLane="best" departSpeed="0" />
    <trip depart="1324.95" id="110017"  from="71213423#0" to="151292466#1" fromTaz="1120005" toTaz="1120003" departLane="best" departSpeed="0" />
    <trip depart="1337.42" id="110047"  from="71213423#0" to="151292466#1" fromTaz="1120005" toTaz="1120003" departLane="best" departSpeed="0" />
    <trip depart="1355.38" id="11007"  from="71213423#0" to="151292466#1" fromTaz="1120005" toTaz="1120003" departLane="best" departSpeed="0" />
    <trip depart="1385.27" id="110026"  from="71213423#0" to="151292466#1" fromTaz="1120005" toTaz="1120003" departLane="best" departSpeed="0" />
    <trip depart="1504.21" id="110030"  from="71213423#0" to="151292466#1" fromTaz="1120005" toTaz="1120003" departLane="best" departSpeed="0" />
    <trip depart="1506.36" id="110061"  from="151292466#1" to="71213423#0" fromTaz="1120003" toTaz="1120005" departLane="best" departSpeed="0" />
    <trip depart="1513.56" id="110067"  from="151292466#1" to="71213423#0" fromTaz="1120003" toTaz="1120005" departLane="best" departSpeed="0" />
    <trip depart="1527.48" id="110058"  from="151292466#1" to="71213423#0" fromTaz="1120003" toTaz="1120005" departLane="best" departSpeed="0" />
    <trip depart="1527.91" id="110039"  from="71213423#0" to="151292466#1" fromTaz="1120005" toTaz="1120003" departLane="best" departSpeed="0" />
    <trip depart="1530.86" id="110082"  from="151292466#1" to="71213423#0" fromTaz="1120003" toTaz="1120005" departLane="best" departSpeed="0" />
    <trip depart="1542.16" id="110075"  from="151292466#1" to="71213423#0" fromTaz="1120003" toTaz="1120005" departLane="best" departSpeed="0" />
    <trip depart="1567.68" id="110081"  from="151292466#1" to="71213423#0" fromTaz="1120003" toTaz="1120005" departLane="best" departSpeed="0" />
    <trip depart="1580.26" id="110065"  from="151292466#1" to="71213423#0" fromTaz="1120003" toTaz="1120005" departLane="best" departSpeed="0" />
    <trip depart="1582.19" id="110053"  from="151292466#1" to="71213423#0" fromTaz="1120003" toTaz="1120005" departLane="best" departSpeed="0" />
    <trip depart="1589.60" id="110096"  from="151292466#1" to="71213423#0" fromTaz="1120003" toTaz="1120005" departLane="best" departSpeed="0" />
    <trip depart="1600.72" id="110089"  from="151292466#1" to="71213423#0" fromTaz="1120003" toTaz="1120005" departLane="best" departSpeed="0" />
    <trip depart="1606.81" id="110072"  from="151292466#1" to="71213423#0" fromTaz="1120003" toTaz="1120005" departLane="best" departSpeed="0" />
    <trip depart="1608.52" id="110052"  from="151292466#1" to="71213423#0" fromTaz="1120003" toTaz="1120005" departLane="best" departSpeed="0" />
    <trip depart="1623.41" id="110048"  from="71213423#0" to="151292466#1" fromTaz="1120005" toTaz="1120003" departLane="best" departSpeed="0" />
    <trip depart="1634.91" id="110093"  from="151292466#1" to="71213423#0" fromTaz="1120003" toTaz="1120005" departLane="best" departSpeed="0" />
    <trip depart="1636.13" id="110059"  from="151292466#1" to="71213423#0" fromTaz="1120003" toTaz="1120005" departLane="best" departSpeed="0" />
    <trip depart="1638.84" id="110038"  from="71213423#0" to="151292466#1" fromTaz="1120005" toTaz="1120003" departLane="best" departSpeed="0" />
    <trip depart="1642.95" id="110070"  from="151292466#1" to="71213423#0" fromTaz="1120003" toTaz="1120005" departLane="best" departSpeed="0" />
    <trip depart="1655.65" id="110057"  from="151292466#1" to="71213423#0" fromTaz="1120003" toTaz="1120005" departLane="best" departSpeed="0" />
    <trip depart="1669.47" id="110060"  from="151292466#1" to="71213423#0" fromTaz="1120003" toTaz="1120005" departLane="best" departSpeed="0" />
    <trip depart="1674.42" id="110095"  from="151292466#1" to="71213423#0" fromTaz="1120003" toTaz="1120005" departLane="best" departSpeed="0" />
    <trip depart="1709.51" id="110083"  from="151292466#1" to="71213423#0" fromTaz="1120003" toTaz="1120005" departLane="best" departSpeed="0" />
    <trip depart="1735.89" id="110073"  from="151292466#1" to="71213423#0" fromTaz="1120003" toTaz="1120005" departLane="best" departSpeed="0" />
    <trip depart="1763.89" id="110086"  from="151292466#1" to="71213423#0" fromTaz="1120003" toTaz="1120005" departLane="best" departSpeed="0" />
    <trip depart="1776.26" id="110088"  from="151292466#1" to="71213423#0" fromTaz="1120003" toTaz="1120005" departLane="best" departSpeed="0" />
    <trip depart="1789.55" id="110074"  from="151292466#1" to="71213423#0" fromTaz="1120003" toTaz="1120005" departLane="best" departSpeed="0" />
    <trip depart="1804.23" id="110080"  from="151292466#1" to="71213423#0" fromTaz="1120003" toTaz="1120005" departLane="best" departSpeed="0" />
    <trip depart="1808.16" id="110069"  from="151292466#1" to="71213423#0" fromTaz="1120003" toTaz="1120005" departLane="best" departSpeed="0" />
    <trip depart="1810.25" id="110084"  from="151292466#1" to="71213423#0" fromTaz="1120003" toTaz="1120005" departLane="best" departSpeed="0" />
    <trip depart="1819.61" id="110077"  from="151292466#1" to="71213423#0" fromTaz="1120003" toTaz="1120005" departLane="best" departSpeed="0" />
    <trip depart="1866.30" id="110031"  from="71213423#0" to="151292466#1" fromTaz="1120005" toTaz="1120003" departLane="best" departSpeed="0" />
    <trip depart="1874.58" id="110092"  from="151292466#1" to="71213423#0" fromTaz="1120003" toTaz="1120005" departLane="best" departSpeed="0" />
    <trip depart="1882.85" id="110090"  from="151292466#1" to="71213423#0" fromTaz="1120003" toTaz="1120005" departLane="best" departSpeed="0" />
    <trip depart="1883.82" id="11006"  from="71213423#0" to="151292466#1" fromTaz="1120005" toTaz="1120003" departLane="best" departSpeed="0" />
    <trip depart="1902.21" id="110034"  from="71213423#0" to="151292466#1" fromTaz="1120005" toTaz="1120003" departLane="best" departSpeed="0" />
    <trip depart="1907.58" id="110078"  from="151292466#1" to="71213423#0" fromTaz="1120003" toTaz="1120005" departLane="best" departSpeed="0" />
    <trip depart="1925.96" id="110099"  from="151292466#1" to="71213423#0" fromTaz="1120003" toTaz="1120005" departLane="best" departSpeed="0" />
    <trip depart="1938.42" id="110085"  from="151292466#1" to="71213423#0" fromTaz="1120003" toTaz="1120005" departLane="best" departSpeed="0" />
    <trip depart="1947.19" id="110064"  from="151292466#1" to="71213423#0" fromTaz="1120003" toTaz="1120005" departLane="best" departSpeed="0" />
    <trip depart="1948.66" id="110079"  from="151292466#1" to="71213423#0" fromTaz="1120003" toTaz="1120005" departLane="best" departSpeed="0" />
    <trip depart="1953.92" id="110018"  from="71213423#0" to="151292466#1" fromTaz="1120005" toTaz="1120003" departLane="best" departSpeed="0" />
    <trip depart="1969.38" id="110062"  from="151292466#1" to="71213423#0" fromTaz="1120003" toTaz="1120005" departLane="best" departSpeed="0" />
    <trip depart="1972.68" id="110014"  from="71213423#0" to="151292466#1" fromTaz="1120005" toTaz="1120003" departLane="best" departSpeed="0" />
    <trip depart="1991.59" id="110087"  from="151292466#1" to="71213423#0" fromTaz="1120003" toTaz="1120005" departLane="best" departSpeed="0" />
    <trip depart="1992.83" id="110066"  from="151292466#1" to="71213423#0" fromTaz="1120003" toTaz="1120005" departLane="best" departSpeed="0" />
    <trip depart="2023.55" id="110068"  from="151292466#1" to="71213423#0" fromTaz="1120003" toTaz="1120005" departLane="best" departSpeed="0" />
    <trip depart="2050.96" id="110097"  from="151292466#1" to="71213423#0" fromTaz="1120003" toTaz="1120005" departLane="best" departSpeed="0" />
    <trip depart="2063.33" id="110071"  from="151292466#1" to="71213423#0" fromTaz="1120003" toTaz="1120005" departLane="best" departSpeed="0" />
    <trip depart="2068.64" id="110010"  from="71213423#0" to="151292466#1" fromTaz="1120005" toTaz="1120003" departLane="best" departSpeed="0" />
    <trip depart="2078.63" id="110094"  from="151292466#1" to="71213423#0" fromTaz="1120003" toTaz="1120005" departLane="best" departSpeed="0" />
    <trip depart="2087.99" id="110050"  from="151292466#1" to="71213423#0" fromTaz="1120003" toTaz="1120005" departLane="best" departSpeed="0" />
    <trip depart="2101.11" id="110063"  from="151292466#1" to="71213423#0" fromTaz="1120003" toTaz="1120005" departLane="best" departSpeed="0" />
    <trip depart="2117.64" id="11002"  from="71213423#0" to="151292466#1" fromTaz="1120005" toTaz="1120003" departLane="best" departSpeed="0" />
    <trip depart="2120.30" id="110076"  from="151292466#1" to="71213423#0" fromTaz="1120003" toTaz="1120005" departLane="best" departSpeed="0" />
    <trip depart="2120.98" id="110054"  from="151292466#1" to="71213423#0" fromTaz="1120003" toTaz="1120005" departLane="best" departSpeed="0" />
    <trip depart="2136.13" id="11004"  from="71213423#0" to="151292466#1" fromTaz="1120005" toTaz="1120003" departLane="best" departSpeed="0" />
    <trip depart="2160.01" id="110098"  from="151292466#1" to="71213423#0" fromTaz="1120003" toTaz="1120005" departLane="best" departSpeed="0" />
    <trip depart="2183.17" id="110024"  from="71213423#0" to="151292466#1" fromTaz="1120005" toTaz="1120003" departLane="best" departSpeed="0" />
    <trip depart="2197.99" id="110055"  from="151292466#1" to="71213423#0" fromTaz="1120003" toTaz="1120005" departLane="best" departSpeed="0" />
    <trip depart="2200.23" id="110020"  from="71213423#0" to="151292466#1" fromTaz="1120005" toTaz="1120003" departLane="best" departSpeed="0" />
    <trip depart="2211.77" id="110091"  from="151292466#1" to="71213423#0" fromTaz="1120003" toTaz="1120005" departLane="best" departSpeed="0" />
    <trip depart="2218.77" id="110051"  from="151292466#1" to="71213423#0" fromTaz="1120003" toTaz="1120005" departLane="best" departSpeed="0" />
    <trip depart="2241.34" id="110012"  from="71213423#0" to="151292466#1" fromTaz="1120005" toTaz="1120003" departLane="best" departSpeed="0" />
    <trip depart="2272.50" id="11009"  from="71213423#0" to="151292466#1" fromTaz="1120005" toTaz="1120003" departLane="best" departSpeed="0" />
    <trip depart="2320.77" id="110013"  from="71213423#0" to="151292466#1" fromTaz="1120005" toTaz="1120003" departLane="best" departSpeed="0" />
    <trip depart="2352.65" id="110027"  from="71213423#0" to="151292466#1" fromTaz="1120005" toTaz="1120003" departLane="best" departSpeed="0" />
    <trip depart="2359.42" id="110023"  from="71213423#0" to="151292466#1" fromTaz="1120005" toTaz="1120003" departLane="best" departSpeed="0" />
    <trip depart="2362.81" id="110043"  from="71213423#0" to="151292466#1" fromTaz="1120005" toTaz="1120003" departLane="best" departSpeed="0" />
    <trip depart="2391.90" id="110056"  from="151292466#1" to="71213423#0" fromTaz="1120003" toTaz="1120005" departLane="best" departSpeed="0" />
    <trip depart="2395.78" id="11008"  from="71213423#0" to="151292466#1" fromTaz="1120005" toTaz="1120003" departLane="best" departSpeed="0" />
<!-- xxxxxxxxxxxx FIREMEN XXXXXXXXXXXXXX -->
    <trip depart="607.38" id="120044"  from="75117908#5" to="151292466#1" fromTaz="1120006" toTaz="1120003" departLane="best" departSpeed="0" />
    <trip depart="619.60" id="120029"  from="75117908#5" to="151292466#1" fromTaz="1120006" toTaz="1120003" departLane="best" departSpeed="0" />
    <trip depart="625.67" id="120019"  from="75117908#5" to="151292466#1" fromTaz="1120006" toTaz="1120003" departLane="best" departSpeed="0" />
    <trip depart="641.55" id="120042"  from="75117908#5" to="151292466#1" fromTaz="1120006" toTaz="1120003" departLane="best" departSpeed="0" />
    <trip depart="657.85" id="120049"  from="75117908#5" to="151292466#1" fromTaz="1120006" toTaz="1120003" departLane="best" departSpeed="0" />
    <trip depart="672.60" id="120033"  from="75117908#5" to="151292466#1" fromTaz="1120006" toTaz="1120003" departLane="best" departSpeed="0" />
    <trip depart="701.67" id="120045"  from="75117908#5" to="151292466#1" fromTaz="1120006" toTaz="1120003" departLane="best" departSpeed="0" />
    <trip depart="751.17" id="120016"  from="75117908#5" to="151292466#1" fromTaz="1120006" toTaz="1120003" departLane="best" departSpeed="0" />
    <trip depart="762.06" id="120011"  from="75117908#5" to="151292466#1" fromTaz="1120006" toTaz="1120003" departLane="best" departSpeed="0" />
    <trip depart="767.24" id="120037"  from="75117908#5" to="151292466#1" fromTaz="1120006" toTaz="1120003" departLane="best" departSpeed="0" />
    <trip depart="779.74" id="120036"  from="75117908#5" to="151292466#1" fromTaz="1120006" toTaz="1120003" departLane="best" departSpeed="0" />
    <trip depart="782.59" id="120035"  from="75117908#5" to="151292466#1" fromTaz="1120006" toTaz="1120003" departLane="best" departSpeed="0" />
    <trip depart="816.11" id="120028"  from="75117908#5" to="151292466#1" fromTaz="1120006" toTaz="1120003" departLane="best" departSpeed="0" />
    <trip depart="862.10" id="120040"  from="75117908#5" to="151292466#1" fromTaz="1120006" toTaz="1120003" departLane="best" departSpeed="0" />
    <trip depart="905.79" id="120046"  from="75117908#5" to="151292466#1" fromTaz="1120006" toTaz="1120003" departLane="best" departSpeed="0" />
    <trip depart="945.65" id="120022"  from="75117908#5" to="151292466#1" fromTaz="1120006" toTaz="1120003" departLane="best" departSpeed="0" />
    <trip depart="952.32" id="120021"  from="75117908#5" to="151292466#1" fromTaz="1120006" toTaz="1120003" departLane="best" departSpeed="0" />
    <trip depart="990.93" id="12000"  from="75117908#5" to="151292466#1" fromTaz="1120006" toTaz="1120003" departLane="best" departSpeed="0" />
    <trip depart="1010.45" id="12005"  from="75117908#5" to="151292466#1" fromTaz="1120006" toTaz="1120003" departLane="best" departSpeed="0" />
    <trip depart="1010.68" id="120041"  from="75117908#5" to="151292466#1" fromTaz="1120006" toTaz="1120003" departLane="best" departSpeed="0" />
    <trip depart="1023.68" id="120032"  from="75117908#5" to="151292466#1" fromTaz="1120006" toTaz="1120003" departLane="best" departSpeed="0" />
    <trip depart="1076.94" id="12001"  from="75117908#5" to="151292466#1" fromTaz="1120006" toTaz="1120003" departLane="best" departSpeed="0" />
    <trip depart="1142.30" id="120025"  from="75117908#5" to="151292466#1" fromTaz="1120006" toTaz="1120003" departLane="best" departSpeed="0" />
    <trip depart="1254.29" id="12003"  from="75117908#5" to="151292466#1" fromTaz="1120006" toTaz="1120003" departLane="best" departSpeed="0" />
    <trip depart="1266.67" id="120015"  from="75117908#5" to="151292466#1" fromTaz="1120006" toTaz="1120003" departLane="best" departSpeed="0" />
    <trip depart="1324.95" id="120017"  from="75117908#5" to="151292466#1" fromTaz="1120006" toTaz="1120003" departLane="best" departSpeed="0" />
    <trip depart="1337.42" id="120047"  from="75117908#5" to="151292466#1" fromTaz="1120006" toTaz="1120003" departLane="best" departSpeed="0" />
    <trip depart="1355.38" id="12007"  from="75117908#5" to="151292466#1" fromTaz="1120006" toTaz="1120003" departLane="best" departSpeed="0" />
    <trip depart="1385.27" id="120026"  from="75117908#5" to="151292466#1" fromTaz="1120006" toTaz="1120003" departLane="best" departSpeed="0" />
    <trip depart="1504.21" id="120030"  from="75117908#5" to="151292466#1" fromTaz="1120006" toTaz="1120003" departLane="best" departSpeed="0" />
    <trip depart="1506.36" id="120061"  from="151292466#1" to="75117908#5" fromTaz="1120003" toTaz="1120006" departLane="best" departSpeed="0" />
    <trip depart="1513.56" id="120067"  from="151292466#1" to="75117908#5" fromTaz="1120003" toTaz="1120006" departLane="best" departSpeed="0" />
    <trip depart="1527.48" id="120058"  from="151292466#1" to="75117908#5" fromTaz="1120003" toTaz="1120006" departLane="best" departSpeed="0" />
    <trip depart="1527.91" id="120039"  from="75117908#5" to="151292466#1" fromTaz="1120006" toTaz="1120003" departLane="best" departSpeed="0" />
    <trip depart="1530.86" id="120082"  from="151292466#1" to="75117908#5" fromTaz="1120003" toTaz="1120006" departLane="best" departSpeed="0" />
    <trip depart="1542.16" id="120075"  from="151292466#1" to="75117908#5" fromTaz="1120003" toTaz="1120006" departLane="best" departSpeed="0" />
    <trip depart="1567.68" id="120081"  from="151292466#1" to="75117908#5" fromTaz="1120003" toTaz="1120006" departLane="best" departSpeed="0" />
    <trip depart="1580.26" id="120065"  from="151292466#1" to="75117908#5" fromTaz="1120003" toTaz="1120006" departLane="best" departSpeed="0" />
    <trip depart="1582.19" id="120053"  from="151292466#1" to="75117908#5" fromTaz="1120003" toTaz="1120006" departLane="best" departSpeed="0" />
    <trip depart="1589.60" id="120096"  from="151292466#1" to="75117908#5" fromTaz="1120003" toTaz="1120006" departLane="best" departSpeed="0" />
    <trip depart="1600.72" id="120089"  from="151292466#1" to="75117908#5" fromTaz="1120003" toTaz="1120006" departLane="best" departSpeed="0" />
    <trip depart="1606.81" id="120072"  from="151292466#1" to="75117908#5" fromTaz="1120003" toTaz="1120006" departLane="best" departSpeed="0" />
    <trip depart="1608.52" id="120052"  from="151292466#1" to="75117908#5" fromTaz="1120003" toTaz="1120006" departLane="best" departSpeed="0" />
    <trip depart="1623.41" id="120048"  from="75117908#5" to="151292466#1" fromTaz="1120006" toTaz="1120003" departLane="best" departSpeed="0" />
    <trip depart="1634.91" id="120093"  from="151292466#1" to="75117908#5" fromTaz="1120003" toTaz="1120006" departLane="best" departSpeed="0" />
    <trip depart="1636.13" id="120059"  from="151292466#1" to="75117908#5" fromTaz="1120003" toTaz="1120006" departLane="best" departSpeed="0" />
    <trip depart="1638.84" id="120038"  from="75117908#5" to="151292466#1" fromTaz="1120006" toTaz="1120003" departLane="best" departSpeed="0" />
    <trip depart="1642.95" id="120070"  from="151292466#1" to="75117908#5" fromTaz="1120003" toTaz="1120006" departLane="best" departSpeed="0" />
    <trip depart="1655.65" id="120057"  from="151292466#1" to="75117908#5" fromTaz="1120003" toTaz="1120006" departLane="best" departSpeed="0" />
    <trip depart="1669.47" id="120060"  from="151292466#1" to="75117908#5" fromTaz="1120003" toTaz="1120006" departLane="best" departSpeed="0" />
    <trip depart="1674.42" id="120095"  from="151292466#1" to="75117908#5" fromTaz="1120003" toTaz="1120006" departLane="best" departSpeed="0" />
    <trip depart="1709.51" id="120083"  from="151292466#1" to="75117908#5" fromTaz="1120003" toTaz="1120006" departLane="best" departSpeed="0" />
    <trip depart="1735.89" id="120073"  from="151292466#1" to="75117908#5" fromTaz="1120003" toTaz="1120006" departLane="best" departSpeed="0" />
    <trip depart="1763.89" id="120086"  from="151292466#1" to="75117908#5" fromTaz="1120003" toTaz="1120006" departLane="best" departSpeed="0" />
    <trip depart="1776.26" id="120088"  from="151292466#1" to="75117908#5" fromTaz="1120003" toTaz="1120006" departLane="best" departSpeed="0" />
    <trip depart="1789.55" id="120074"  from="151292466#1" to="75117908#5" fromTaz="1120003" toTaz="1120006" departLane="best" departSpeed="0" />
    <trip depart="1804.23" id="120080"  from="151292466#1" to="75117908#5" fromTaz="1120003" toTaz="1120006" departLane="best" departSpeed="0" />
    <trip depart="1808.16" id="120069"  from="151292466#1" to="75117908#5" fromTaz="1120003" toTaz="1120006" departLane="best" departSpeed="0" />
    <trip depart="1810.25" id="120084"  from="151292466#1" to="75117908#5" fromTaz="1120003" toTaz="1120006" departLane="best" departSpeed="0" />
    <trip depart="1819.61" id="120077"  from="151292466#1" to="75117908#5" fromTaz="1120003" toTaz="1120006" departLane="best" departSpeed="0" />
    <trip depart="1866.30" id="120031"  from="75117908#5" to="151292466#1" fromTaz="1120006" toTaz="1120003" departLane="best" departSpeed="0" />
    <trip depart="1874.58" id="120092"  from="151292466#1" to="75117908#5" fromTaz="1120003" toTaz="1120006" departLane="best" departSpeed="0" />
    <trip depart="1882.85" id="120090"  from="151292466#1" to="75117908#5" fromTaz="1120003" toTaz="1120006" departLane="best" departSpeed="0" />
    <trip depart="1883.82" id="12006"  from="75117908#5" to="151292466#1" fromTaz="1120006" toTaz="1120003" departLane="best" departSpeed="0" />
    <trip depart="1902.21" id="120034"  from="75117908#5" to="151292466#1" fromTaz="1120006" toTaz="1120003" departLane="best" departSpeed="0" />
    <trip depart="1907.58" id="120078"  from="151292466#1" to="75117908#5" fromTaz="1120003" toTaz="1120006" departLane="best" departSpeed="0" />
    <trip depart="1925.96" id="120099"  from="151292466#1" to="75117908#5" fromTaz="1120003" toTaz="1120006" departLane="best" departSpeed="0" />
    <trip depart="1938.42" id="120085"  from="151292466#1" to="75117908#5" fromTaz="1120003" toTaz="1120006" departLane="best" departSpeed="0" />
    <trip depart="1947.19" id="120064"  from="151292466#1" to="75117908#5" fromTaz="1120003" toTaz="1120006" departLane="best" departSpeed="0" />
    <trip depart="1948.66" id="120079"  from="151292466#1" to="75117908#5" fromTaz="1120003" toTaz="1120006" departLane="best" departSpeed="0" />
    <trip depart="1953.92" id="120018"  from="75117908#5" to="151292466#1" fromTaz="1120006" toTaz="1120003" departLane="best" departSpeed="0" />
    <trip depart="1969.38" id="120062"  from="151292466#1" to="75117908#5" fromTaz="1120003" toTaz="1120006" departLane="best" departSpeed="0" />
    <trip depart="1972.68" id="120014"  from="75117908#5" to="151292466#1" fromTaz="1120006" toTaz="1120003" departLane="best" departSpeed="0" />
    <trip depart="1991.59" id="120087"  from="151292466#1" to="75117908#5" fromTaz="1120003" toTaz="1120006" departLane="best" departSpeed="0" />
    <trip depart="1992.83" id="120066"  from="151292466#1" to="75117908#5" fromTaz="1120003" toTaz="1120006" departLane="best" departSpeed="0" />
    <trip depart="2023.55" id="120068"  from="151292466#1" to="75117908#5" fromTaz="1120003" toTaz="1120006" departLane="best" departSpeed="0" />
    <trip depart="2050.96" id="120097"  from="151292466#1" to="75117908#5" fromTaz="1120003" toTaz="1120006" departLane="best" departSpeed="0" />
    <trip depart="2063.33" id="120071"  from="151292466#1" to="75117908#5" fromTaz="1120003" toTaz="1120006" departLane="best" departSpeed="0" />
    <trip depart="2068.64" id="120010"  from="75117908#5" to="151292466#1" fromTaz="1120006" toTaz="1120003" departLane="best" departSpeed="0" />
    <trip depart="2078.63" id="120094"  from="151292466#1" to="75117908#5" fromTaz="1120003" toTaz="1120006" departLane="best" departSpeed="0" />
    <trip depart="2087.99" id="120050"  from="151292466#1" to="75117908#5" fromTaz="1120003" toTaz="1120006" departLane="best" departSpeed="0" />
    <trip depart="2101.11" id="120063"  from="151292466#1" to="75117908#5" fromTaz="1120003" toTaz="1120006" departLane="best" departSpeed="0" />
    <trip depart="2117.64" id="12002"  from="75117908#5" to="151292466#1" fromTaz="1120006" toTaz="1120003" departLane="best" departSpeed="0" />
    <trip depart="2120.30" id="120076"  from="151292466#1" to="75117908#5" fromTaz="1120003" toTaz="1120006" departLane="best" departSpeed="0" />
    <trip depart="2120.98" id="120054"  from="151292466#1" to="75117908#5" fromTaz="1120003" toTaz="1120006" departLane="best" departSpeed="0" />
    <trip depart="2136.13" id="12004"  from="75117908#5" to="151292466#1" fromTaz="1120006" toTaz="1120003" departLane="best" departSpeed="0" />
    <trip depart="2160.01" id="120098"  from="151292466#1" to="75117908#5" fromTaz="1120003" toTaz="1120006" departLane="best" departSpeed="0" />
    <trip depart="2183.17" id="120024"  from="75117908#5" to="151292466#1" fromTaz="1120006" toTaz="1120003" departLane="best" departSpeed="0" />
    <trip depart="2197.99" id="120055"  from="151292466#1" to="75117908#5" fromTaz="1120003" toTaz="1120006" departLane="best" departSpeed="0" />
    <trip depart="2200.23" id="120020"  from="75117908#5" to="151292466#1" fromTaz="1120006" toTaz="1120003" departLane="best" departSpeed="0" />
    <trip depart="2211.77" id="120091"  from="151292466#1" to="75117908#5" fromTaz="1120003" toTaz="1120006" departLane="best" departSpeed="0" />
    <trip depart="2218.77" id="120051"  from="151292466#1" to="75117908#5" fromTaz="1120003" toTaz="1120006" departLane="best" departSpeed="0" />
    <trip depart="2241.34" id="120012"  from="75117908#5" to="151292466#1" fromTaz="1120006" toTaz="1120003" departLane="best" departSpeed="0" />
    <trip depart="2272.50" id="12009"  from="75117908#5" to="151292466#1" fromTaz="1120006" toTaz="1120003" departLane="best" departSpeed="0" />
    <trip depart="2320.77" id="120013"  from="75117908#5" to="151292466#1" fromTaz="1120006" toTaz="1120003" departLane="best" departSpeed="0" />
    <trip depart="2352.65" id="120027"  from="75117908#5" to="151292466#1" fromTaz="1120006" toTaz="1120003" departLane="best" departSpeed="0" />
    <trip depart="2359.42" id="120023"  from="75117908#5" to="151292466#1" fromTaz="1120006" toTaz="1120003" departLane="best" departSpeed="0" />
    <trip depart="2362.81" id="120043"  from="75117908#5" to="151292466#1" fromTaz="1120006" toTaz="1120003" departLane="best" departSpeed="0" />
    <trip depart="2391.90" id="120056"  from="151292466#1" to="75117908#5" fromTaz="1120003" toTaz="1120006" departLane="best" departSpeed="0" />
    <trip depart="2395.78" id="12008"  from="75117908#5" to="151292466#1" fromTaz="1120006" toTaz="1120003" departLane="best" departSpeed="0" />
<!-- xxxxxxxxxxxx VEHICLES XXXXXXXXXXXXXX -->
    <trip depart="0.77" id="3238"  from="91972498#1" to="95159050#1" fromTaz="1000" toTaz="7" departLane="best" departSpeed="0" />
    <trip depart="1.44" id="3726"  from="355558165#0" to="-123484050#1" fromTaz="2" toTaz="1000" departLane="best" departSpeed="0" />
    <trip depart="1.88" id="2680"  from="-23904519#0" to="126777129#2" fromTaz="1000" toTaz="5" departLane="best" departSpeed="0" />
    <trip depart="2.75" id="476"  from="125462782#0" to="29289637" fromTaz="1" toTaz="1000" departLane="best" departSpeed="0" />