<?xml version="1.0" encoding="UTF-8"?>

<!-- generated on Thu Oct 20 11:37:37 2016 by SUMO netgenerate Version 0.27.1
<?xml version="1.0" encoding="UTF-8"?>

<configuration xmlns:xsi="http://www.w3.org/2001/XMLSchema-instance" xsi:noNamespaceSchemaLocation="http://sumo.dlr.de/xsd/netgenerateConfiguration.xsd">

    <grid_network>
        <grid value="true"/>
        <grid.number value="16"/>
        <grid.length value="100"/>
        <grid.attach-length value="30"/>
    </grid_network>

    <output>
        <output-file value="canogrid_Bastra_logit20_nomaps_randomtraffic.net.xml"/>
        <plain-output-prefix value="canogrid_Bastra_logit20_nomaps_randomtraffic"/>
    </output>

    <building_defaults>
        <default.lanenumber value="1"/>
        <default.speed value="13.9"/>
        <default.priority value="-1"/>
    </building_defaults>

    <report>
        <verbose value="true"/>
    </report>

</configuration>
-->

<edges version="0.27" xmlns:xsi="http://www.w3.org/2001/XMLSchema-instance" xsi:noNamespaceSchemaLocation="http://sumo.dlr.de/xsd/edges_file.xsd">
    <edge id="0/0to0/1" from="0/0" to="0/1" priority="-1" numLanes="1" speed="13.90"/>
    <edge id="0/0to1/0" from="0/0" to="1/0" priority="-1" numLanes="1" speed="13.90"/>
    <edge id="0/0tobottom0" from="0/0" to="bottom0" priority="-1" numLanes="1" speed="13.90"/>
    <edge id="0/0toleft0" from="0/0" to="left0" priority="-1" numLanes="1" speed="13.90"/>
    <edge id="0/10to0/11" from="0/10" to="0/11" priority="-1" numLanes="1" speed="13.90"/>
    <edge id="0/10to0/9" from="0/10" to="0/9" priority="-1" numLanes="1" speed="13.90"/>
    <edge id="0/10to1/10" from="0/10" to="1/10" priority="-1" numLanes="1" speed="13.90"/>
    <edge id="0/10toleft10" from="0/10" to="left10" priority="-1" numLanes="1" speed="13.90"/>
    <edge id="0/11to0/10" from="0/11" to="0/10" priority="-1" numLanes="1" speed="13.90"/>
    <edge id="0/11to0/12" from="0/11" to="0/12" priority="-1" numLanes="1" speed="13.90"/>
    <edge id="0/11to1/11" from="0/11" to="1/11" priority="-1" numLanes="1" speed="13.90"/>
    <edge id="0/11toleft11" from="0/11" to="left11" priority="-1" numLanes="1" speed="13.90"/>
    <edge id="0/12to0/11" from="0/12" to="0/11" priority="-1" numLanes="1" speed="13.90"/>
    <edge id="0/12to0/13" from="0/12" to="0/13" priority="-1" numLanes="1" speed="13.90"/>
    <edge id="0/12to1/12" from="0/12" to="1/12" priority="-1" numLanes="1" speed="13.90"/>
    <edge id="0/12toleft12" from="0/12" to="left12" priority="-1" numLanes="1" speed="13.90"/>
    <edge id="0/13to0/12" from="0/13" to="0/12" priority="-1" numLanes="1" speed="13.90"/>
    <edge id="0/13to0/14" from="0/13" to="0/14" priority="-1" numLanes="1" speed="13.90"/>
    <edge id="0/13to1/13" from="0/13" to="1/13" priority="-1" numLanes="1" speed="13.90"/>
    <edge id="0/13toleft13" from="0/13" to="left13" priority="-1" numLanes="1" speed="13.90"/>
    <edge id="0/14to0/13" from="0/14" to="0/13" priority="-1" numLanes="1" speed="13.90"/>
    <edge id="0/14to0/15" from="0/14" to="0/15" priority="-1" numLanes="1" speed="13.90"/>
    <edge id="0/14to1/14" from="0/14" to="1/14" priority="-1" numLanes="1" speed="13.90"/>
    <edge id="0/14toleft14" from="0/14" to="left14" priority="-1" numLanes="1" speed="13.90"/>
    <edge id="0/15to0/14" from="0/15" to="0/14" priority="-1" numLanes="1" speed="13.90"/>
    <edge id="0/15to1/15" from="0/15" to="1/15" priority="-1" numLanes="1" speed="13.90"/>
    <edge id="0/15toleft15" from="0/15" to="left15" priority="-1" numLanes="1" speed="13.90"/>
    <edge id="0/15totop0" from="0/15" to="top0" priority="-1" numLanes="1" speed="13.90"/>
    <edge id="0/1to0/0" from="0/1" to="0/0" priority="-1" numLanes="1" speed="13.90"/>
    <edge id="0/1to0/2" from="0/1" to="0/2" priority="-1" numLanes="1" speed="13.90"/>
    <edge id="0/1to1/1" from="0/1" to="1/1" priority="-1" numLanes="1" speed="13.90"/>
    <edge id="0/1toleft1" from="0/1" to="left1" priority="-1" numLanes="1" speed="13.90"/>
    <edge id="0/2to0/1" from="0/2" to="0/1" priority="-1" numLanes="1" speed="13.90"/>
    <edge id="0/2to0/3" from="0/2" to="0/3" priority="-1" numLanes="1" speed="13.90"/>
    <edge id="0/2to1/2" from="0/2" to="1/2" priority="-1" numLanes="1" speed="13.90"/>
    <edge id="0/2toleft2" from="0/2" to="left2" priority="-1" numLanes="1" speed="13.90"/>
    <edge id="0/3to0/2" from="0/3" to="0/2" priority="-1" numLanes="1" speed="13.90"/>
    <edge id="0/3to0/4" from="0/3" to="0/4" priority="-1" numLanes="1" speed="13.90"/>
    <edge id="0/3to1/3" from="0/3" to="1/3" priority="-1" numLanes="1" speed="13.90"/>
    <edge id="0/3toleft3" from="0/3" to="left3" priority="-1" numLanes="1" speed="13.90"/>
    <edge id="0/4to0/3" from="0/4" to="0/3" priority="-1" numLanes="1" speed="13.90"/>
    <edge id="0/4to0/5" from="0/4" to="0/5" priority="-1" numLanes="1" speed="13.90"/>
    <edge id="0/4to1/4" from="0/4" to="1/4" priority="-1" numLanes="1" speed="13.90"/>
    <edge id="0/4toleft4" from="0/4" to="left4" priority="-1" numLanes="1" speed="13.90"/>
    <edge id="0/5to0/4" from="0/5" to="0/4" priority="-1" numLanes="1" speed="13.90"/>
    <edge id="0/5to0/6" from="0/5" to="0/6" priority="-1" numLanes="1" speed="13.90"/>
    <edge id="0/5to1/5" from="0/5" to="1/5" priority="-1" numLanes="1" speed="13.90"/>
    <edge id="0/5toleft5" from="0/5" to="left5" priority="-1" numLanes="1" speed="13.90"/>
    <edge id="0/6to0/5" from="0/6" to="0/5" priority="-1" numLanes="1" speed="13.90"/>
    <edge id="0/6to0/7" from="0/6" to="0/7" priority="-1" numLanes="1" speed="13.90"/>
    <edge id="0/6to1/6" from="0/6" to="1/6" priority="-1" numLanes="1" speed="13.90"/>
    <edge id="0/6toleft6" from="0/6" to="left6" priority="-1" numLanes="1" speed="13.90"/>
    <edge id="0/7to0/6" from="0/7" to="0/6" priority="-1" numLanes="1" speed="13.90"/>
    <edge id="0/7to0/8" from="0/7" to="0/8" priority="-1" numLanes="1" speed="13.90"/>
    <edge id="0/7to1/7" from="0/7" to="1/7" priority="-1" numLanes="1" speed="13.90"/>
    <edge id="0/7toleft7" from="0/7" to="left7" priority="-1" numLanes="1" speed="13.90"/>
    <edge id="0/8to0/7" from="0/8" to="0/7" priority="-1" numLanes="1" speed="13.90"/>
    <edge id="0/8to0/9" from="0/8" to="0/9" priority="-1" numLanes="1" speed="13.90"/>
    <edge id="0/8to1/8" from="0/8" to="1/8" priority="-1" numLanes="1" speed="13.90"/>
    <edge id="0/8toleft8" from="0/8" to="left8" priority="-1" numLanes="1" speed="13.90"/>
    <edge id="0/9to0/10" from="0/9" to="0/10" priority="-1" numLanes="1" speed="13.90"/>
    <edge id="0/9to0/8" from="0/9" to="0/8" priority="-1" numLanes="1" speed="13.90"/>
    <edge id="0/9to1/9" from="0/9" to="1/9" priority="-1" numLanes="1" speed="13.90"/>
    <edge id="0/9toleft9" from="0/9" to="left9" priority="-1" numLanes="1" speed="13.90"/>
    <edge id="1/0to0/0" from="1/0" to="0/0" priority="-1" numLanes="1" speed="13.90"/>
    <edge id="1/0to1/1" from="1/0" to="1/1" priority="-1" numLanes="1" speed="13.90"/>
    <edge id="1/0to2/0" from="1/0" to="2/0" priority="-1" numLanes="1" speed="13.90"/>
    <edge id="1/0tobottom1" from="1/0" to="bottom1" priority="-1" numLanes="1" speed="13.90"/>
    <edge id="1/10to0/10" from="1/10" to="0/10" priority="-1" numLanes="1" speed="13.90"/>
    <edge id="1/10to1/11" from="1/10" to="1/11" priority="-1" numLanes="1" speed="13.90"/>
    <edge id="1/10to1/9" from="1/10" to="1/9" priority="-1" numLanes="1" speed="13.90"/>
    <edge id="1/10to2/10" from="1/10" to="2/10" priority="-1" numLanes="1" speed="13.90"/>
    <edge id="1/11to0/11" from="1/11" to="0/11" priority="-1" numLanes="1" speed="13.90"/>
    <edge id="1/11to1/10" from="1/11" to="1/10" priority="-1" numLanes="1" speed="13.90"/>
    <edge id="1/11to1/12" from="1/11" to="1/12" priority="-1" numLanes="1" speed="13.90"/>
    <edge id="1/11to2/11" from="1/11" to="2/11" priority="-1" numLanes="1" speed="13.90"/>
    <edge id="1/12to0/12" from="1/12" to="0/12" priority="-1" numLanes="1" speed="13.90"/>
    <edge id="1/12to1/11" from="1/12" to="1/11" priority="-1" numLanes="1" speed="13.90"/>
    <edge id="1/12to1/13" from="1/12" to="1/13" priority="-1" numLanes="1" speed="13.90"/>
    <edge id="1/12to2/12" from="1/12" to="2/12" priority="-1" numLanes="1" speed="13.90"/>
    <edge id="1/13to0/13" from="1/13" to="0/13" priority="-1" numLanes="1" speed="13.90"/>
    <edge id="1/13to1/12" from="1/13" to="1/12" priority="-1" numLanes="1" speed="13.90"/>
    <edge id="1/13to1/14" from="1/13" to="1/14" priority="-1" numLanes="1" speed="13.90"/>
    <edge id="1/13to2/13" from="1/13" to="2/13" priority="-1" numLanes="1" speed="13.90"/>
    <edge id="1/14to0/14" from="1/14" to="0/14" priority="-1" numLanes="1" speed="13.90"/>
    <edge id="1/14to1/13" from="1/14" to="1/13" priority="-1" numLanes="1" speed="13.90"/>
    <edge id="1/14to1/15" from="1/14" to="1/15" priority="-1" numLanes="1" speed="13.90"/>
    <edge id="1/14to2/14" from="1/14" to="2/14" priority="-1" numLanes="1" speed="13.90"/>
    <edge id="1/15to0/15" from="1/15" to="0/15" priority="-1" numLanes="1" speed="13.90"/>
    <edge id="1/15to1/14" from="1/15" to="1/14" priority="-1" numLanes="1" speed="13.90"/>
    <edge id="1/15to2/15" from="1/15" to="2/15" priority="-1" numLanes="1" speed="13.90"/>
    <edge id="1/15totop1" from="1/15" to="top1" priority="-1" numLanes="1" speed="13.90"/>
    <edge id="1/1to0/1" from="1/1" to="0/1" priority="-1" numLanes="1" speed="13.90"/>
    <edge id="1/1to1/0" from="1/1" to="1/0" priority="-1" numLanes="1" speed="13.90"/>
    <edge id="1/1to1/2" from="1/1" to="1/2" priority="-1" numLanes="1" speed="13.90"/>
    <edge id="1/1to2/1" from="1/1" to="2/1" priority="-1" numLanes="1" speed="13.90"/>
    <edge id="1/2to0/2" from="1/2" to="0/2" priority="-1" numLanes="1" speed="13.90"/>
    <edge id="1/2to1/1" from="1/2" to="1/1" priority="-1" numLanes="1" speed="13.90"/>
    <edge id="1/2to1/3" from="1/2" to="1/3" priority="-1" numLanes="1" speed="13.90"/>
    <edge id="1/2to2/2" from="1/2" to="2/2" priority="-1" numLanes="1" speed="13.90"/>
    <edge id="1/3to0/3" from="1/3" to="0/3" priority="-1" numLanes="1" speed="13.90"/>
    <edge id="1/3to1/2" from="1/3" to="1/2" priority="-1" numLanes="1" speed="13.90"/>
    <edge id="1/3to1/4" from="1/3" to="1/4" priority="-1" numLanes="1" speed="13.90"/>
    <edge id="1/3to2/3" from="1/3" to="2/3" priority="-1" numLanes="1" speed="13.90"/>
    <edge id="1/4to0/4" from="1/4" to="0/4" priority="-1" numLanes="1" speed="13.90"/>
    <edge id="1/4to1/3" from="1/4" to="1/3" priority="-1" numLanes="1" speed="13.90"/>
    <edge id="1/4to1/5" from="1/4" to="1/5" priority="-1" numLanes="1" speed="13.90"/>
    <edge id="1/4to2/4" from="1/4" to="2/4" priority="-1" numLanes="1" speed="13.90"/>
    <edge id="1/5to0/5" from="1/5" to="0/5" priority="-1" numLanes="1" speed="13.90"/>
    <edge id="1/5to1/4" from="1/5" to="1/4" priority="-1" numLanes="1" speed="13.90"/>
    <edge id="1/5to1/6" from="1/5" to="1/6" priority="-1" numLanes="1" speed="13.90"/>
    <edge id="1/5to2/5" from="1/5" to="2/5" priority="-1" numLanes="1" speed="13.90"/>
    <edge id="1/6to0/6" from="1/6" to="0/6" priority="-1" numLanes="1" speed="13.90"/>
    <edge id="1/6to1/5" from="1/6" to="1/5" priority="-1" numLanes="1" speed="13.90"/>
    <edge id="1/6to1/7" from="1/6" to="1/7" priority="-1" numLanes="1" speed="13.90"/>
    <edge id="1/6to2/6" from="1/6" to="2/6" priority="-1" numLanes="1" speed="13.90"/>
    <edge id="1/7to0/7" from="1/7" to="0/7" priority="-1" numLanes="1" speed="13.90"/>
    <edge id="1/7to1/6" from="1/7" to="1/6" priority="-1" numLanes="1" speed="13.90"/>
    <edge id="1/7to1/8" from="1/7" to="1/8" priority="-1" numLanes="1" speed="13.90"/>
    <edge id="1/7to2/7" from="1/7" to="2/7" priority="-1" numLanes="1" speed="13.90"/>
    <edge id="1/8to0/8" from="1/8" to="0/8" priority="-1" numLanes="1" speed="13.90"/>
    <edge id="1/8to1/7" from="1/8" to="1/7" priority="-1" numLanes="1" speed="13.90"/>
    <edge id="1/8to1/9" from="1/8" to="1/9" priority="-1" numLanes="1" speed="13.90"/>
    <edge id="1/8to2/8" from="1/8" to="2/8" priority="-1" numLanes="1" speed="13.90"/>
    <edge id="1/9to0/9" from="1/9" to="0/9" priority="-1" numLanes="1" speed="13.90"/>
    <edge id="1/9to1/10" from="1/9" to="1/10" priority="-1" numLanes="1" speed="13.90"/>
    <edge id="1/9to1/8" from="1/9" to="1/8" priority="-1" numLanes="1" speed="13.90"/>
    <edge id="1/9to2/9" from="1/9" to="2/9" priority="-1" numLanes="1" speed="13.90"/>
    <edge id="10/0to10/1" from="10/0" to="10/1" priority="-1" numLanes="1" speed="13.90"/>
    <edge id="10/0to11/0" from="10/0" to="11/0" priority="-1" numLanes="1" speed="13.90"/>
    <edge id="10/0to9/0" from="10/0" to="9/0" priority="-1" numLanes="1" speed="13.90"/>
    <edge id="10/0tobottom10" from="10/0" to="bottom10" priority="-1" numLanes="1" speed="13.90"/>
    <edge id="10/10to10/11" from="10/10" to="10/11" priority="-1" numLanes="1" speed="13.90"/>
    <edge id="10/10to10/9" from="10/10" to="10/9" priority="-1" numLanes="1" speed="13.90"/>
    <edge id="10/10to11/10" from="10/10" to="11/10" priority="-1" numLanes="1" speed="13.90"/>
    <edge id="10/10to9/10" from="10/10" to="9/10" priority="-1" numLanes="1" speed="13.90"/>
    <edge id="10/11to10/10" from="10/11" to="10/10" priority="-1" numLanes="1" speed="13.90"/>
    <edge id="10/11to10/12" from="10/11" to="10/12" priority="-1" numLanes="1" speed="13.90"/>
    <edge id="10/11to11/11" from="10/11" to="11/11" priority="-1" numLanes="1" speed="13.90"/>
    <edge id="10/11to9/11" from="10/11" to="9/11" priority="-1" numLanes="1" speed="13.90"/>
    <edge id="10/12to10/11" from="10/12" to="10/11" priority="-1" numLanes="1" speed="13.90"/>
    <edge id="10/12to10/13" from="10/12" to="10/13" priority="-1" numLanes="1" speed="13.90"/>
    <edge id="10/12to11/12" from="10/12" to="11/12" priority="-1" numLanes="1" speed="13.90"/>
    <edge id="10/12to9/12" from="10/12" to="9/12" priority="-1" numLanes="1" speed="13.90"/>
    <edge id="10/13to10/12" from="10/13" to="10/12" priority="-1" numLanes="1" speed="13.90"/>
    <edge id="10/13to10/14" from="10/13" to="10/14" priority="-1" numLanes="1" speed="13.90"/>
    <edge id="10/13to11/13" from="10/13" to="11/13" priority="-1" numLanes="1" speed="13.90"/>
    <edge id="10/13to9/13" from="10/13" to="9/13" priority="-1" numLanes="1" speed="13.90"/>
    <edge id="10/14to10/13" from="10/14" to="10/13" priority="-1" numLanes="1" speed="13.90"/>
    <edge id="10/14to10/15" from="10/14" to="10/15" priority="-1" numLanes="1" speed="13.90"/>
    <edge id="10/14to11/14" from="10/14" to="11/14" priority="-1" numLanes="1" speed="13.90"/>
    <edge id="10/14to9/14" from="10/14" to="9/14" priority="-1" numLanes="1" speed="13.90"/>
    <edge id="10/15to10/14" from="10/15" to="10/14" priority="-1" numLanes="1" speed="13.90"/>
    <edge id="10/15to11/15" from="10/15" to="11/15" priority="-1" numLanes="1" speed="13.90"/>
    <edge id="10/15to9/15" from="10/15" to="9/15" priority="-1" numLanes="1" speed="13.90"/>
    <edge id="10/15totop10" from="10/15" to="top10" priority="-1" numLanes="1" speed="13.90"/>
    <edge id="10/1to10/0" from="10/1" to="10/0" priority="-1" numLanes="1" speed="13.90"/>
    <edge id="10/1to10/2" from="10/1" to="10/2" priority="-1" numLanes="1" speed="13.90"/>
    <edge id="10/1to11/1" from="10/1" to="11/1" priority="-1" numLanes="1" speed="13.90"/>
    <edge id="10/1to9/1" from="10/1" to="9/1" priority="-1" numLanes="1" speed="13.90"/>
    <edge id="10/2to10/1" from="10/2" to="10/1" priority="-1" numLanes="1" speed="13.90"/>
    <edge id="10/2to10/3" from="10/2" to="10/3" priority="-1" numLanes="1" speed="13.90"/>
    <edge id="10/2to11/2" from="10/2" to="11/2" priority="-1" numLanes="1" speed="13.90"/>
    <edge id="10/2to9/2" from="10/2" to="9/2" priority="-1" numLanes="1" speed="13.90"/>
    <edge id="10/3to10/2" from="10/3" to="10/2" priority="-1" numLanes="1" speed="13.90"/>
    <edge id="10/3to10/4" from="10/3" to="10/4" priority="-1" numLanes="1" speed="13.90"/>
    <edge id="10/3to11/3" from="10/3" to="11/3" priority="-1" numLanes="1" speed="13.90"/>
    <edge id="10/3to9/3" from="10/3" to="9/3" priority="-1" numLanes="1" speed="13.90"/>
    <edge id="10/4to10/3" from="10/4" to="10/3" priority="-1" numLanes="1" speed="13.90"/>
    <edge id="10/4to10/5" from="10/4" to="10/5" priority="-1" numLanes="1" speed="13.90"/>
    <edge id="10/4to11/4" from="10/4" to="11/4" priority="-1" numLanes="1" speed="13.90"/>
    <edge id="10/4to9/4" from="10/4" to="9/4" priority="-1" numLanes="1" speed="13.90"/>
    <edge id="10/5to10/4" from="10/5" to="10/4" priority="-1" numLanes="1" speed="13.90"/>
    <edge id="10/5to10/6" from="10/5" to="10/6" priority="-1" numLanes="1" speed="13.90"/>
    <edge id="10/5to11/5" from="10/5" to="11/5" priority="-1" numLanes="1" speed="13.90"/>
    <edge id="10/5to9/5" from="10/5" to="9/5" priority="-1" numLanes="1" speed="13.90"/>
    <edge id="10/6to10/5" from="10/6" to="10/5" priority="-1" numLanes="1" speed="13.90"/>
    <edge id="10/6to10/7" from="10/6" to="10/7" priority="-1" numLanes="1" speed="13.90"/>
    <edge id="10/6to11/6" from="10/6" to="11/6" priority="-1" numLanes="1" speed="13.90"/>
    <edge id="10/6to9/6" from="10/6" to="9/6" priority="-1" numLanes="1" speed="13.90"/>
    <edge id="10/7to10/6" from="10/7" to="10/6" priority="-1" numLanes="1" speed="13.90"/>
    <edge id="10/7to10/8" from="10/7" to="10/8" priority="-1" numLanes="1" speed="13.90"/>
    <edge id="10/7to11/7" from="10/7" to="11/7" priority="-1" numLanes="1" speed="13.90"/>
    <edge id="10/7to9/7" from="10/7" to="9/7" priority="-1" numLanes="1" speed="13.90"/>
    <edge id="10/8to10/7" from="10/8" to="10/7" priority="-1" numLanes="1" speed="13.90"/>
    <edge id="10/8to10/9" from="10/8" to="10/9" priority="-1" numLanes="1" speed="13.90"/>
    <edge id="10/8to11/8" from="10/8" to="11/8" priority="-1" numLanes="1" speed="13.90"/>
    <edge id="10/8to9/8" from="10/8" to="9/8" priority="-1" numLanes="1" speed="13.90"/>
    <edge id="10/9to10/10" from="10/9" to="10/10" priority="-1" numLanes="1" speed="13.90"/>
    <edge id="10/9to10/8" from="10/9" to="10/8" priority="-1" numLanes="1" speed="13.90"/>
    <edge id="10/9to11/9" from="10/9" to="11/9" priority="-1" numLanes="1" speed="13.90"/>
    <edge id="10/9to9/9" from="10/9" to="9/9" priority="-1" numLanes="1" speed="13.90"/>
    <edge id="11/0to10/0" from="11/0" to="10/0" priority="-1" numLanes="1" speed="13.90"/>
    <edge id="11/0to11/1" from="11/0" to="11/1" priority="-1" numLanes="1" speed="13.90"/>
    <edge id="11/0to12/0" from="11/0" to="12/0" priority="-1" numLanes="1" speed="13.90"/>
    <edge id="11/0tobottom11" from="11/0" to="bottom11" priority="-1" numLanes="1" speed="13.90"/>
    <edge id="11/10to10/10" from="11/10" to="10/10" priority="-1" numLanes="1" speed="13.90"/>
    <edge id="11/10to11/11" from="11/10" to="11/11" priority="-1" numLanes="1" speed="13.90"/>
    <edge id="11/10to11/9" from="11/10" to="11/9" priority="-1" numLanes="1" speed="13.90"/>
    <edge id="11/10to12/10" from="11/10" to="12/10" priority="-1" numLanes="1" speed="13.90"/>
    <edge id="11/11to10/11" from="11/11" to="10/11" priority="-1" numLanes="1" speed="13.90"/>
    <edge id="11/11to11/10" from="11/11" to="11/10" priority="-1" numLanes="1" speed="13.90"/>
    <edge id="11/11to11/12" from="11/11" to="11/12" priority="-1" numLanes="1" speed="13.90"/>
    <edge id="11/11to12/11" from="11/11" to="12/11" priority="-1" numLanes="1" speed="13.90"/>
    <edge id="11/12to10/12" from="11/12" to="10/12" priority="-1" numLanes="1" speed="13.90"/>
    <edge id="11/12to11/11" from="11/12" to="11/11" priority="-1" numLanes="1" speed="13.90"/>
    <edge id="11/12to11/13" from="11/12" to="11/13" priority="-1" numLanes="1" speed="13.90"/>
    <edge id="11/12to12/12" from="11/12" to="12/12" priority="-1" numLanes="1" speed="13.90"/>
    <edge id="11/13to10/13" from="11/13" to="10/13" priority="-1" numLanes="1" speed="13.90"/>
    <edge id="11/13to11/12" from="11/13" to="11/12" priority="-1" numLanes="1" speed="13.90"/>
    <edge id="11/13to11/14" from="11/13" to="11/14" priority="-1" numLanes="1" speed="13.90"/>
    <edge id="11/13to12/13" from="11/13" to="12/13" priority="-1" numLanes="1" speed="13.90"/>
    <edge id="11/14to10/14" from="11/14" to="10/14" priority="-1" numLanes="1" speed="13.90"/>
    <edge id="11/14to11/13" from="11/14" to="11/13" priority="-1" numLanes="1" speed="13.90"/>
    <edge id="11/14to11/15" from="11/14" to="11/15" priority="-1" numLanes="1" speed="13.90"/>
    <edge id="11/14to12/14" from="11/14" to="12/14" priority="-1" numLanes="1" speed="13.90"/>
    <edge id="11/15to10/15" from="11/15" to="10/15" priority="-1" numLanes="1" speed="13.90"/>
    <edge id="11/15to11/14" from="11/15" to="11/14" priority="-1" numLanes="1" speed="13.90"/>
    <edge id="11/15to12/15" from="11/15" to="12/15" priority="-1" numLanes="1" speed="13.90"/>
    <edge id="11/15totop11" from="11/15" to="top11" priority="-1" numLanes="1" speed="13.90"/>
    <edge id="11/1to10/1" from="11/1" to="10/1" priority="-1" numLanes="1" speed="13.90"/>
    <edge id="11/1to11/0" from="11/1" to="11/0" priority="-1" numLanes="1" speed="13.90"/>
    <edge id="11/1to11/2" from="11/1" to="11/2" priority="-1" numLanes="1" speed="13.90"/>
    <edge id="11/1to12/1" from="11/1" to="12/1" priority="-1" numLanes="1" speed="13.90"/>
    <edge id="11/2to10/2" from="11/2" to="10/2" priority="-1" numLanes="1" speed="13.90"/>
    <edge id="11/2to11/1" from="11/2" to="11/1" priority="-1" numLanes="1" speed="13.90"/>
    <edge id="11/2to11/3" from="11/2" to="11/3" priority="-1" numLanes="1" speed="13.90"/>
    <edge id="11/2to12/2" from="11/2" to="12/2" priority="-1" numLanes="1" speed="13.90"/>
    <edge id="11/3to10/3" from="11/3" to="10/3" priority="-1" numLanes="1" speed="13.90"/>
    <edge id="11/3to11/2" from="11/3" to="11/2" priority="-1" numLanes="1" speed="13.90"/>
    <edge id="11/3to11/4" from="11/3" to="11/4" priority="-1" numLanes="1" speed="13.90"/>
    <edge id="11/3to12/3" from="11/3" to="12/3" priority="-1" numLanes="1" speed="13.90"/>
    <edge id="11/4to10/4" from="11/4" to="10/4" priority="-1" numLanes="1" speed="13.90"/>
    <edge id="11/4to11/3" from="11/4" to="11/3" priority="-1" numLanes="1" speed="13.90"/>
    <edge id="11/4to11/5" from="11/4" to="11/5" priority="-1" numLanes="1" speed="13.90"/>
    <edge id="11/4to12/4" from="11/4" to="12/4" priority="-1" numLanes="1" speed="13.90"/>
    <edge id="11/5to10/5" from="11/5" to="10/5" priority="-1" numLanes="1" speed="13.90"/>
    <edge id="11/5to11/4" from="11/5" to="11/4" priority="-1" numLanes="1" speed="13.90"/>
    <edge id="11/5to11/6" from="11/5" to="11/6" priority="-1" numLanes="1" speed="13.90"/>
    <edge id="11/5to12/5" from="11/5" to="12/5" priority="-1" numLanes="1" speed="13.90"/>
    <edge id="11/6to10/6" from="11/6" to="10/6" priority="-1" numLanes="1" speed="13.90"/>
    <edge id="11/6to11/5" from="11/6" to="11/5" priority="-1" numLanes="1" speed="13.90"/>
    <edge id="11/6to11/7" from="11/6" to="11/7" priority="-1" numLanes="1" speed="13.90"/>
    <edge id="11/6to12/6" from="11/6" to="12/6" priority="-1" numLanes="1" speed="13.90"/>
    <edge id="11/7to10/7" from="11/7" to="10/7" priority="-1" numLanes="1" speed="13.90"/>
    <edge id="11/7to11/6" from="11/7" to="11/6" priority="-1" numLanes="1" speed="13.90"/>
    <edge id="11/7to11/8" from="11/7" to="11/8" priority="-1" numLanes="1" speed="13.90"/>
    <edge id="11/7to12/7" from="11/7" to="12/7" priority="-1" numLanes="1" speed="13.90"/>
    <edge id="11/8to10/8" from="11/8" to="10/8" priority="-1" numLanes="1" speed="13.90"/>
    <edge id="11/8to11/7" from="11/8" to="11/7" priority="-1" numLanes="1" speed="13.90"/>
    <edge id="11/8to11/9" from="11/8" to="11/9" priority="-1" numLanes="1" speed="13.90"/>
    <edge id="11/8to12/8" from="11/8" to="12/8" priority="-1" numLanes="1" speed="13.90"/>
    <edge id="11/9to10/9" from="11/9" to="10/9" priority="-1" numLanes="1" speed="13.90"/>
    <edge id="11/9to11/10" from="11/9" to="11/10" priority="-1" numLanes="1" speed="13.90"/>
    <edge id="11/9to11/8" from="11/9" to="11/8" priority="-1" numLanes="1" speed="13.90"/>
    <edge id="11/9to12/9" from="11/9" to="12/9" priority="-1" numLanes="1" speed="13.90"/>
    <edge id="12/0to11/0" from="12/0" to="11/0" priority="-1" numLanes="1" speed="13.90"/>
    <edge id="12/0to12/1" from="12/0" to="12/1" priority="-1" numLanes="1" speed="13.90"/>
    <edge id="12/0to13/0" from="12/0" to="13/0" priority="-1" numLanes="1" speed="13.90"/>
    <edge id="12/0tobottom12" from="12/0" to="bottom12" priority="-1" numLanes="1" speed="13.90"/>
    <edge id="12/10to11/10" from="12/10" to="11/10" priority="-1" numLanes="1" speed="13.90"/>
    <edge id="12/10to12/11" from="12/10" to="12/11" priority="-1" numLanes="1" speed="13.90"/>
    <edge id="12/10to12/9" from="12/10" to="12/9" priority="-1" numLanes="1" speed="13.90"/>
    <edge id="12/10to13/10" from="12/10" to="13/10" priority="-1" numLanes="1" speed="13.90"/>
    <edge id="12/11to11/11" from="12/11" to="11/11" priority="-1" numLanes="1" speed="13.90"/>
    <edge id="12/11to12/10" from="12/11" to="12/10" priority="-1" numLanes="1" speed="13.90"/>
    <edge id="12/11to12/12" from="12/11" to="12/12" priority="-1" numLanes="1" speed="13.90"/>
    <edge id="12/11to13/11" from="12/11" to="13/11" priority="-1" numLanes="1" speed="13.90"/>
    <edge id="12/12to11/12" from="12/12" to="11/12" priority="-1" numLanes="1" speed="13.90"/>
    <edge id="12/12to12/11" from="12/12" to="12/11" priority="-1" numLanes="1" speed="13.90"/>
    <edge id="12/12to12/13" from="12/12" to="12/13" priority="-1" numLanes="1" speed="13.90"/>
    <edge id="12/12to13/12" from="12/12" to="13/12" priority="-1" numLanes="1" speed="13.90"/>
    <edge id="12/13to11/13" from="12/13" to="11/13" priority="-1" numLanes="1" speed="13.90"/>
    <edge id="12/13to12/12" from="12/13" to="12/12" priority="-1" numLanes="1" speed="13.90"/>
    <edge id="12/13to12/14" from="12/13" to="12/14" priority="-1" numLanes="1" speed="13.90"/>
    <edge id="12/13to13/13" from="12/13" to="13/13" priority="-1" numLanes="1" speed="13.90"/>
    <edge id="12/14to11/14" from="12/14" to="11/14" priority="-1" numLanes="1" speed="13.90"/>
    <edge id="12/14to12/13" from="12/14" to="12/13" priority="-1" numLanes="1" speed="13.90"/>
    <edge id="12/14to12/15" from="12/14" to="12/15" priority="-1" numLanes="1" speed="13.90"/>
    <edge id="12/14to13/14" from="12/14" to="13/14" priority="-1" numLanes="1" speed="13.90"/>
    <edge id="12/15to11/15" from="12/15" to="11/15" priority="-1" numLanes="1" speed="13.90"/>
    <edge id="12/15to12/14" from="12/15" to="12/14" priority="-1" numLanes="1" speed="13.90"/>
    <edge id="12/15to13/15" from="12/15" to="13/15" priority="-1" numLanes="1" speed="13.90"/>
    <edge id="12/15totop12" from="12/15" to="top12" priority="-1" numLanes="1" speed="13.90"/>
    <edge id="12/1to11/1" from="12/1" to="11/1" priority="-1" numLanes="1" speed="13.90"/>
    <edge id="12/1to12/0" from="12/1" to="12/0" priority="-1" numLanes="1" speed="13.90"/>
    <edge id="12/1to12/2" from="12/1" to="12/2" priority="-1" numLanes="1" speed="13.90"/>
    <edge id="12/1to13/1" from="12/1" to="13/1" priority="-1" numLanes="1" speed="13.90"/>
    <edge id="12/2to11/2" from="12/2" to="11/2" priority="-1" numLanes="1" speed="13.90"/>
    <edge id="12/2to12/1" from="12/2" to="12/1" priority="-1" numLanes="1" speed="13.90"/>
    <edge id="12/2to12/3" from="12/2" to="12/3" priority="-1" numLanes="1" speed="13.90"/>
    <edge id="12/2to13/2" from="12/2" to="13/2" priority="-1" numLanes="1" speed="13.90"/>
    <edge id="12/3to11/3" from="12/3" to="11/3" priority="-1" numLanes="1" speed="13.90"/>
    <edge id="12/3to12/2" from="12/3" to="12/2" priority="-1" numLanes="1" speed="13.90"/>
    <edge id="12/3to12/4" from="12/3" to="12/4" priority="-1" numLanes="1" speed="13.90"/>
    <edge id="12/3to13/3" from="12/3" to="13/3" priority="-1" numLanes="1" speed="13.90"/>
    <edge id="12/4to11/4" from="12/4" to="11/4" priority="-1" numLanes="1" speed="13.90"/>
    <edge id="12/4to12/3" from="12/4" to="12/3" priority="-1" numLanes="1" speed="13.90"/>
    <edge id="12/4to12/5" from="12/4" to="12/5" priority="-1" numLanes="1" speed="13.90"/>
    <edge id="12/4to13/4" from="12/4" to="13/4" priority="-1" numLanes="1" speed="13.90"/>
    <edge id="12/5to11/5" from="12/5" to="11/5" priority="-1" numLanes="1" speed="13.90"/>
    <edge id="12/5to12/4" from="12/5" to="12/4" priority="-1" numLanes="1" speed="13.90"/>
    <edge id="12/5to12/6" from="12/5" to="12/6" priority="-1" numLanes="1" speed="13.90"/>
    <edge id="12/5to13/5" from="12/5" to="13/5" priority="-1" numLanes="1" speed="13.90"/>
    <edge id="12/6to11/6" from="12/6" to="11/6" priority="-1" numLanes="1" speed="13.90"/>
    <edge id="12/6to12/5" from="12/6" to="12/5" priority="-1" numLanes="1" speed="13.90"/>
    <edge id="12/6to12/7" from="12/6" to="12/7" priority="-1" numLanes="1" speed="13.90"/>
    <edge id="12/6to13/6" from="12/6" to="13/6" priority="-1" numLanes="1" speed="13.90"/>
    <edge id="12/7to11/7" from="12/7" to="11/7" priority="-1" numLanes="1" speed="13.90"/>
    <edge id="12/7to12/6" from="12/7" to="12/6" priority="-1" numLanes="1" speed="13.90"/>
    <edge id="12/7to12/8" from="12/7" to="12/8" priority="-1" numLanes="1" speed="13.90"/>
    <edge id="12/7to13/7" from="12/7" to="13/7" priority="-1" numLanes="1" speed="13.90"/>
    <edge id="12/8to11/8" from="12/8" to="11/8" priority="-1" numLanes="1" speed="13.90"/>
    <edge id="12/8to12/7" from="12/8" to="12/7" priority="-1" numLanes="1" speed="13.90"/>
    <edge id="12/8to12/9" from="12/8" to="12/9" priority="-1" numLanes="1" speed="13.90"/>
    <edge id="12/8to13/8" from="12/8" to="13/8" priority="-1" numLanes="1" speed="13.90"/>
    <edge id="12/9to11/9" from="12/9" to="11/9" priority="-1" numLanes="1" speed="13.90"/>