<?xml version="1.0" encoding="UTF-8"?>

<!-- generated on Sun Feb  5 11:03:13 2017 by SUMO netconvert Version 0.27.1
<?xml version="1.0" encoding="UTF-8"?>

<configuration xmlns:xsi="http://www.w3.org/2001/XMLSchema-instance" xsi:noNamespaceSchemaLocation="http://sumo.dlr.de/xsd/netconvertConfiguration.xsd">

    <input>
        <type-files value="netconvert.osm.types.xml"/>
        <osm-files value="../osm/madrid_retiro.osm"/>
    </input>

    <output>
        <output-file value="madrid_retiro.net.xml"/>
        <plain-output-prefix value="madrid_retiro"/>
        <output.street-names value="true"/>
        <output.original-names value="true"/>
    </output>

    <projection>
        <proj.utm value="true"/>
        <proj.plain-geo value="true"/>
    </projection>

    <edge_removal>
        <remove-edges.by-type value="highway.bridleway,highway.cycleway,highway.footway,highway.ford,highway.path,highway.pedestrian,highway.service,highway.stairs,highway.step,highway.steps,highway.track,railway.light_rail,railway.preserved,railway.rail,railway.subway,railway.tram"/>
    </edge_removal>

</configuration>
-->

<net version="0.27" xmlns:xsi="http://www.w3.org/2001/XMLSchema-instance" xsi:noNamespaceSchemaLocation="http://sumo.dlr.de/xsd/net_file.xsd">

    <location netOffset="-441339.98,-4474656.45" convBoundary="0.00,0.00,986.55,584.96" origBoundary="-3.691482,40.420494,-3.679883,40.425749" projParameter="+proj=utm +zone=30 +ellps=WGS84 +datum=WGS84 +units=m +no_defs"/>

    <type id="highway.bridleway" priority="1" numLanes="1" speed="2.78" allow="pedestrian" oneway="1" width="2.00"/>
    <type id="highway.bus_guideway" priority="1" numLanes="1" speed="8.33" allow="bus" oneway="1"/>
    <type id="highway.cycleway" priority="1" numLanes="1" speed="5.56" allow="bicycle" oneway="0" width="1.00"/>
    <type id="highway.footway" priority="1" numLanes="1" speed="2.78" allow="pedestrian" oneway="1" width="2.00"/>
    <type id="highway.ford" priority="1" numLanes="1" speed="2.78" allow="army" oneway="0"/>
    <type id="highway.living_street" priority="3" numLanes="1" speed="2.78" disallow="tram rail_urban rail rail_electric ship" oneway="0"/>
    <type id="highway.motorway" priority="13" numLanes="2" speed="44.44" allow="private emergency authority army vip passenger hov taxi bus coach delivery truck trailer motorcycle evehicle custom1 custom2" oneway="1"/>
    <type id="highway.motorway_link" priority="12" numLanes="1" speed="22.22" allow="private emergency authority army vip passenger hov taxi bus coach delivery truck trailer motorcycle evehicle custom1 custom2" oneway="1"/>
    <type id="highway.path" priority="1" numLanes="1" speed="2.78" allow="bicycle pedestrian" oneway="1" width="2.00"/>
    <type id="highway.pedestrian" priority="1" numLanes="1" speed="2.78" allow="pedestrian" oneway="1" width="2.00"/>
    <type id="highway.primary" priority="9" numLanes="2" speed="27.78" disallow="tram rail_urban rail rail_electric ship" oneway="0"/>
    <type id="highway.primary_link" priority="8" numLanes="1" speed="22.22" disallow="tram rail_urban rail rail_electric ship" oneway="0"/>
    <type id="highway.raceway" priority="14" numLanes="2" speed="83.33" allow="vip" oneway="0"/>
    <type id="highway.residential" priority="4" numLanes="1" speed="13.89" disallow="tram rail_urban rail rail_electric ship" oneway="0"/>
    <type id="highway.secondary" priority="7" numLanes="2" speed="27.78" disallow="tram rail_urban rail rail_electric ship" oneway="0"/>
    <type id="highway.secondary_link" priority="6" numLanes="1" speed="22.22" disallow="tram rail_urban rail rail_electric ship" oneway="0"/>
    <type id="highway.service" priority="2" numLanes="1" speed="5.56" allow="delivery bicycle pedestrian" oneway="0"/>
    <type id="highway.services" priority="1" numLanes="1" speed="8.33" disallow="tram rail_urban rail rail_electric ship" oneway="0"/>
    <type id="highway.stairs" priority="1" numLanes="1" speed="1.39" allow="pedestrian" oneway="1" width="2.00"/>
    <type id="highway.step" priority="1" numLanes="1" speed="1.39" allow="pedestrian" oneway="1" width="2.00"/>
    <type id="highway.steps" priority="1" numLanes="1" speed="1.39" allow="pedestrian" oneway="1" width="2.00"/>
    <type id="highway.tertiary" priority="6" numLanes="1" speed="22.22" disallow="tram rail_urban rail rail_electric ship" oneway="0"/>
    <type id="highway.tertiary_link" priority="5" numLanes="1" speed="22.22" disallow="tram rail_urban rail rail_electric ship" oneway="0"/>
    <type id="highway.track" priority="1" numLanes="1" speed="5.56" disallow="tram rail_urban rail rail_electric ship" oneway="0"/>
    <type id="highway.trunk" priority="11" numLanes="2" speed="27.78" disallow="tram rail_urban rail rail_electric bicycle pedestrian ship" oneway="0"/>
    <type id="highway.trunk_link" priority="10" numLanes="1" speed="22.22" disallow="tram rail_urban rail rail_electric bicycle pedestrian ship" oneway="0"/>
    <type id="highway.unclassified" priority="5" numLanes="1" speed="13.89" disallow="tram rail_urban rail rail_electric ship" oneway="0"/>
    <type id="highway.unsurfaced" priority="1" numLanes="1" speed="8.33" disallow="tram rail_urban rail rail_electric ship" oneway="0"/>
    <type id="railway.light_rail" priority="15" numLanes="1" speed="27.78" allow="rail_urban" oneway="1"/>
    <type id="railway.preserved" priority="15" numLanes="1" speed="27.78" allow="rail" oneway="1"/>
    <type id="railway.rail" priority="15" numLanes="1" speed="83.33" allow="rail rail_electric" oneway="1"/>
    <type id="railway.subway" priority="15" numLanes="1" speed="27.78" allow="rail_urban" oneway="1"/>
    <type id="railway.tram" priority="15" numLanes="1" speed="13.89" allow="tram" oneway="1"/>

    <edge id=":1209330272_0" function="internal">
        <lane id=":1209330272_0_0" index="0" disallow="tram rail_urban rail rail_electric ship" speed="13.89" length="13.24" shape="619.95,63.91 616.06,62.39 612.66,61.77 609.75,62.05 607.33,63.22"/>
    </edge>
    <edge id=":1209330272_1" function="internal">
        <lane id=":1209330272_1_0" index="0" disallow="tram rail_urban rail rail_electric ship" speed="13.89" length="13.27" shape="619.95,63.91 607.99,58.15"/>
    </edge>
    <edge id=":1209330640_0" function="internal">
        <lane id=":1209330640_0_0" index="0" disallow="tram rail_urban rail rail_electric ship" speed="13.89" length="7.62" shape="714.42,119.72 713.58,117.62 712.91,116.15 711.93,114.97 710.11,113.73"/>
    </edge>
    <edge id=":1209330640_1" function="internal">
        <lane id=":1209330640_1_0" index="0" disallow="tram rail_urban rail rail_electric ship" speed="13.89" length="7.49" shape="717.03,116.60 710.11,113.73"/>
    </edge>
    <edge id=":1209330640_2" function="internal">
        <lane id=":1209330640_2_0" index="0" disallow="tram rail_urban rail rail_electric ship" speed="13.89" length="2.88" shape="715.52,112.37 714.01,113.46 713.08,113.85"/>
    </edge>
    <edge id=":1209330640_3" function="internal">
        <lane id=":1209330640_3_0" index="0" speed="13.89" length="3.08" shape="713.08,113.85 712.61,114.05 711.31,114.14 710.11,113.73"/>
    </edge>
    <edge id=":1209330887_0" function="internal">
        <lane id=":1209330887_0_0" index="0" disallow="tram rail_urban rail rail_electric ship" speed="13.89" length="5.00" shape="557.77,44.75 552.95,43.41"/>
    </edge>
    <edge id=":1209330887_1" function="internal">
        <lane id=":1209330887_1_0" index="0" disallow="tram rail_urban rail rail_electric ship" speed="13.89" length="5.29" shape="557.52,40.75 552.95,43.41"/>
    </edge>
    <edge id=":1209332387_0" function="internal">
        <lane id=":1209332387_0_0" index="0" disallow="tram rail_urban rail rail_electric ship" speed="13.89" length="6.84" shape="470.81,24.29 469.74,22.27 468.67,20.74 467.60,19.71 466.53,19.16"/>
    </edge>
    <edge id=":1209332387_1" function="internal">
        <lane id=":1209332387_1_0" index="0" disallow="tram rail_urban rail rail_electric ship" speed="13.89" length="7.23" shape="473.49,21.11 466.53,19.16"/>
    </edge>
    <edge id=":1278838932_0" function="internal">
        <lane id=":1278838932_0_0" index="0" disallow="tram rail_urban rail rail_electric ship" speed="13.89" length="0.10" shape="55.37,327.37 55.37,327.37"/>
    </edge>
    <edge id=":1278838937_0" function="internal">
        <lane id=":1278838937_0_0" index="0" disallow="tram rail_urban rail rail_electric ship" speed="13.89" length="0.10" shape="289.81,409.68 289.81,409.69"/>
    </edge>
    <edge id=":1278838975_0" function="internal">
        <lane id=":1278838975_0_0" index="0" disallow="tram rail_urban rail rail_electric ship" speed="13.89" length="1.45" shape="63.60,518.26 63.52,517.54 63.50,517.05 63.55,516.56 63.68,515.85"/>
        <lane id=":1278838975_0_1" index="1" disallow="tram rail_urban rail rail_electric ship" speed="13.89" length="1.45" shape="66.88,517.88 66.83,517.46 66.82,517.16 66.85,516.87 66.92,516.44"/>
        <lane id=":1278838975_0_2" index="2" disallow="tram rail_urban rail rail_electric ship" speed="13.89" length="1.45" shape="70.15,517.51 70.14,517.37 70.14,517.27 70.15,517.18 70.17,517.04"/>
    </edge>
    <edge id=":1278838976_0" function="internal">
        <lane id=":1278838976_0_0" index="0" disallow="tram rail_urban rail rail_electric ship" speed="13.89" length="0.10" shape="45.79,331.30 45.78,331.27"/>
        <lane id=":1278838976_0_1" index="1" disallow="tram rail_urban rail rail_electric ship" speed="13.89" length="0.10" shape="42.67,332.38 42.67,332.38"/>
        <lane id=":1278838976_0_2" index="2" disallow="tram rail_urban rail rail_electric ship" speed="13.89" length="0.10" shape="39.55,333.46 39.56,333.49"/>
    </edge>
    <edge id=":1278838994_0" function="internal">
        <lane id=":1278838994_0_0" index="0" disallow="tram rail_urban rail rail_electric ship" speed="13.89" length="2.28" shape="124.36,567.62 124.37,570.31"/>
        <lane id=":1278838994_0_1" index="1" disallow="tram rail_urban rail rail_electric ship" speed="13.89" length="2.28" shape="124.34,564.32 124.35,567.01"/>
        <lane id=":1278838994_0_2" index="2" disallow="tram rail_urban rail rail_electric ship" speed="13.89" length="2.28" shape="124.32,561.01 124.33,563.71"/>
        <lane id=":1278838994_0_3" index="3" disallow="tram rail_urban rail rail_electric ship" speed="13.89" length="2.28" shape="124.30,557.71 124.32,560.41"/>
        <lane id=":1278838994_0_4" index="4" disallow="tram rail_urban rail rail_electric ship" speed="13.89" length="2.28" shape="124.30,557.71 124.30,557.11"/>
    </edge>
    <edge id=":1278838994_5" function="internal">
        <lane id=":1278838994_5_0" index="0" disallow="tram rail_urban rail rail_electric ship" speed="13.89" length="4.85" shape="124.31,559.49 124.32,560.41"/>
        <lane id=":1278838994_5_1" index="1" disallow="tram rail_urban rail rail_electric ship" speed="13.89" length="4.85" shape="130.44,553.43 128.59,554.58 127.47,555.77 126.30,556.72 124.30,557.11"/>
        <lane id=":1278838994_5_2" index="2" disallow="tram rail_urban rail rail_electric ship" speed="13.89" length="4.85" shape="130.44,553.43 128.71,553.98 127.45,554.06 126.15,553.91 124.28,553.81"/>
    </edge>
    <edge id=":1278839005_0" function="internal">
        <lane id=":1278839005_0_0" index="0" disallow="tram rail_urban rail rail_electric ship" speed="13.89" length="0.10" shape="325.04,543.98 325.03,543.98"/>
    </edge>
    <edge id=":1278839005_1" function="internal">
        <lane id=":1278839005_1_0" index="0" disallow="tram rail_urban rail rail_electric ship" speed="13.89" length="2.41" shape="325.04,543.98 323.74,543.26 323.25,542.48"/>
    </edge>
    <edge id=":1278839005_4" function="internal">
        <lane id=":1278839005_4_0" index="0" speed="13.89" length="2.41" shape="323.25,542.48 323.59,541.62 324.76,540.69"/>
    </edge>
    <edge id=":1278839005_2" function="internal">
        <lane id=":1278839005_2_0" index="0" disallow="tram rail_urban rail rail_electric ship" speed="13.89" length="0.10" shape="324.78,540.69 324.76,540.69"/>
    </edge>
    <edge id=":1278839005_3" function="internal">
        <lane id=":1278839005_3_0" index="0" disallow="tram rail_urban rail rail_electric ship" speed="13.89" length="2.41" shape="324.78,540.69 326.07,541.42 326.55,542.21"/>
    </edge>
    <edge id=":1278839005_5" function="internal">
        <lane id=":1278839005_5_0" index="0" speed="13.89" length="2.41" shape="326.55,542.21 326.20,543.06 325.03,543.98"/>
    </edge>
    <edge id=":1278839019_0" function="internal">
        <lane id=":1278839019_0_0" index="0" disallow="tram rail_urban rail rail_electric ship" speed="13.89" length="0.10" shape="31.23,336.47 31.23,336.46"/>
        <lane id=":1278839019_0_1" index="1" disallow="tram rail_urban rail rail_electric ship" speed="13.89" length="0.10" shape="34.31,335.29 34.32,335.31"/>
    </edge>
    <edge id=":1278839025_0" function="internal">
        <lane id=":1278839025_0_0" index="0" disallow="tram rail_urban rail rail_electric ship" speed="13.89" length="0.35" shape="272.66,388.36 272.77,388.33"/>
        <lane id=":1278839025_0_1" index="1" disallow="tram rail_urban rail rail_electric ship" speed="13.89" length="0.35" shape="273.57,391.53 273.91,391.42"/>
        <lane id=":1278839025_0_2" index="2" disallow="tram rail_urban rail rail_electric ship" speed="13.89" length="0.35" shape="274.48,394.71 275.04,394.52"/>
    </edge>
    <edge id=":1278839038_0" function="internal">
        <lane id=":1278839038_0_0" index="0" disallow="tram rail_urban rail rail_electric ship" speed="13.89" length="0.51" shape="111.72,546.94 111.52,547.76"/>
        <lane id=":1278839038_0_1" index="1" disallow="tram rail_urban rail rail_electric ship" speed="13.89" length="0.51" shape="108.48,546.33 108.36,546.83"/>
        <lane id=":1278839038_0_2" index="2" disallow="tram rail_urban rail rail_electric ship" speed="13.89" length="0.51" shape="105.23,545.73 105.19,545.89"/>
    </edge>
    <edge id=":1278839042_0" function="internal">
        <lane id=":1278839042_0_0" index="0" disallow="tram rail_urban rail rail_electric ship" speed="13.89" length="1.02" shape="144.33,549.01 144.47,549.04 144.57,549.06 144.68,549.06 144.82,549.05"/>
        <lane id=":1278839042_0_1" index="1" disallow="tram rail_urban rail rail_electric ship" speed="13.89" length="1.02" shape="143.52,552.21 143.97,552.32 144.28,552.37 144.59,552.37 145.05,552.34"/>
    </edge>
    <edge id=":1278839084_0" function="internal">
        <lane id=":1278839084_0_0" index="0" disallow="tram rail_urban rail rail_electric ship" speed="13.89" length="0.10" shape="54.54,506.38 54.48,506.45"/>
        <lane id=":1278839084_0_1" index="1" disallow="tram rail_urban rail rail_electric ship" speed="13.89" length="0.10" shape="57.04,508.53 57.10,508.46"/>
    </edge>
    <edge id=":1278839092_0" function="internal">
        <lane id=":1278839092_0_0" index="0" disallow="tram rail_urban rail rail_electric ship" speed="13.89" length="1.79" shape="28.38,561.67 28.21,561.66 28.09,561.66 27.97,561.69 27.81,561.74"/>
        <lane id=":1278839092_0_1" index="1" disallow="tram rail_urban rail rail_electric ship" speed="13.89" length="1.79" shape="28.58,558.37 28.05,558.35 27.69,558.36 27.33,558.43 26.82,558.59"/>
        <lane id=":1278839092_0_2" index="2" disallow="tram rail_urban rail rail_electric ship" speed="13.89" length="1.79" shape="28.78,555.08 27.90,555.03 27.29,555.06 26.69,555.18 25.84,555.44"/>
    </edge>
    <edge id=":1278839131_0" function="internal">
        <lane id=":1278839131_0_0" index="0" disallow="tram rail_urban rail rail_electric ship" speed="13.89" length="0.10" shape="95.72,437.55 95.72,437.55"/>
    </edge>
    <edge id=":1505184312_0" function="internal">
        <lane id=":1505184312_0_0" index="0" disallow="tram rail_urban rail rail_electric ship" speed="13.89" length="0.10" shape="974.87,146.21 974.86,146.23"/>
        <lane id=":1505184312_0_1" index="1" disallow="tram rail_urban rail rail_electric ship" speed="13.89" length="0.10" shape="971.68,145.37 971.68,145.37"/>
    </edge>
    <edge id=":1505184312_2" function="internal">
        <lane id=":1505184312_2_0" index="0" disallow="tram rail_urban rail rail_electric ship" speed="13.89" length="2.41" shape="971.68,145.37 970.56,146.35 969.66,146.54"/>
    </edge>
    <edge id=":1505184312_6" function="internal">
        <lane id=":1505184312_6_0" index="0" speed="13.89" length="2.41" shape="969.66,146.54 968.97,145.93 968.49,144.52"/>
    </edge>
    <edge id=":1505184312_3" function="internal">
        <lane id=":1505184312_3_0" index="0" disallow="tram rail_urban rail rail_electric ship" speed="13.89" length="0.10" shape="965.30,143.66 965.30,143.68"/>
        <lane id=":1505184312_3_1" index="1" disallow="tram rail_urban rail rail_electric ship" speed="13.89" length="0.10" shape="968.49,144.51 968.49,144.52"/>
    </edge>
    <edge id=":1505184312_5" function="internal">
        <lane id=":1505184312_5_0" index="0" disallow="tram rail_urban rail rail_electric ship" speed="13.89" length="2.41" shape="968.49,144.51 969.61,143.53 970.51,143.35"/>
    </edge>
    <edge id=":1505184312_7" function="internal">
        <lane id=":1505184312_7_0" index="0" speed="13.89" length="2.41" shape="970.51,143.35 971.20,143.96 971.68,145.37"/>
    </edge>
    <edge id=":1505184313_0" function="internal">
        <lane id=":1505184313_0_0" index="0" disallow="tram rail_urban rail rail_electric ship" speed="13.89" length="0.33" shape="954.19,223.10 954.15,223.26"/>
        <lane id=":1505184313_0_1" index="1" disallow="tram rail_urban rail rail_electric ship" speed="13.89" length="0.33" shape="951.00,222.24 950.90,222.72"/>
    </edge>
    <edge id=":1505184313_2" function="internal">
        <lane id=":1505184313_2_0" index="0" disallow="tram rail_urban rail rail_electric ship" speed="13.89" length="2.41" shape="951.00,222.24 949.88,223.22 948.98,223.41"/>
    </edge>
    <edge id=":1505184313_6" function="internal">
        <lane id=":1505184313_6_0" index="0" speed="13.89" length="2.41" shape="948.98,223.41 948.29,222.79 947.82,221.38"/>
    </edge>
    <edge id=":1505184313_3" function="internal">
        <lane id=":1505184313_3_0" index="0" disallow="tram rail_urban rail rail_electric ship" speed="13.89" length="0.99" shape="944.39,221.65 944.63,220.53"/>
        <lane id=":1505184313_3_1" index="1" disallow="tram rail_urban rail rail_electric ship" speed="13.89" length="0.99" shape="947.64,222.19 947.82,221.38"/>
    </edge>
    <edge id=":1505184313_5" function="internal">
        <lane id=":1505184313_5_0" index="0" disallow="tram rail_urban rail rail_electric ship" speed="13.89" length="2.41" shape="947.64,222.19 948.66,221.10 949.54,220.83"/>
    </edge>
    <edge id=":1505184313_7" function="internal">
        <lane id=":1505184313_7_0" index="0" speed="13.89" length="2.41" shape="949.54,220.83 950.28,221.37 950.90,222.72"/>
    </edge>
    <edge id=":1505184314_0" function="internal">
        <lane id=":1505184314_0_0" index="0" disallow="tram rail_urban rail rail_electric ship" speed="13.89" length="0.11" shape="921.09,237.18 920.99,237.12"/>
        <lane id=":1505184314_0_1" index="1" disallow="tram rail_urban rail rail_electric ship" speed="13.89" length="0.11" shape="922.68,234.29 922.67,234.28"/>
    </edge>
    <edge id=":1505184314_2" function="internal">
        <lane id=":1505184314_2_0" index="0" disallow="tram rail_urban rail rail_electric ship" speed="13.89" length="2.41" shape="922.68,234.29 922.00,232.96 922.04,232.04"/>
    </edge>
    <edge id=":1505184314_6" function="internal">
        <lane id=":1505184314_6_0" index="0" speed="13.89" length="2.41" shape="922.04,232.04 922.81,231.52 924.29,231.41"/>
    </edge>
    <edge id=":1505184314_3" function="internal">
        <lane id=":1505184314_3_0" index="0" disallow="tram rail_urban rail rail_electric ship" speed="13.89" length="0.17" shape="925.85,228.49 926.06,228.61"/>
        <lane id=":1505184314_3_1" index="1" disallow="tram rail_urban rail rail_electric ship" speed="13.89" length="0.17" shape="924.34,231.44 924.29,231.41"/>
    </edge>
    <edge id=":1505184314_5" function="internal">
        <lane id=":1505184314_5_0" index="0" disallow="tram rail_urban rail rail_electric ship" speed="13.89" length="2.41" shape="924.34,231.44 924.99,232.77 924.93,233.69"/>
    </edge>
    <edge id=":1505184314_7" function="internal">
        <lane id=":1505184314_7_0" index="0" speed="13.89" length="2.41" shape="924.93,233.69 924.16,234.20 922.67,234.28"/>
    </edge>
    <edge id=":1505184315_0" function="internal">
        <lane id=":1505184315_0_0" index="0" disallow="tram rail_urban rail rail_electric ship" speed="13.89" length="4.82" shape="978.22,260.96 978.91,262.28 978.87,263.20 978.11,263.73 976.63,263.86"/>
    </edge>
    <edge id=":1505184316_0" function="internal">
        <lane id=":1505184316_0_0" index="0" disallow="tram rail_urban rail rail_electric ship" speed="13.89" length="0.11" shape="941.17,262.78 941.17,262.66"/>
        <lane id=":1505184316_0_1" index="1" disallow="tram rail_urban rail rail_electric ship" speed="13.89" length="0.11" shape="944.47,262.56 944.46,262.54"/>
    </edge>
    <edge id=":1505184316_2" function="internal">
        <lane id=":1505184316_2_0" index="0" disallow="tram rail_urban rail rail_electric ship" speed="13.89" length="2.41" shape="944.47,262.56 945.25,261.29 946.07,260.86"/>
    </edge>
    <edge id=":1505184316_6" function="internal">
        <lane id=":1505184316_6_0" index="0" speed="13.89" length="2.41" shape="946.07,260.86 946.90,261.24 947.77,262.46"/>
    </edge>
    <edge id=":1505184316_3" function="internal">
        <lane id=":1505184316_3_0" index="0" disallow="tram rail_urban rail rail_electric ship" speed="13.89" length="0.23" shape="951.05,262.05 951.07,262.36"/>
        <lane id=":1505184316_3_1" index="1" disallow="tram rail_urban rail rail_electric ship" speed="13.89" length="0.23" shape="947.76,262.29 947.77,262.46"/>
    </edge>
    <edge id=":1505184316_5" function="internal">
        <lane id=":1505184316_5_0" index="0" disallow="tram rail_urban rail rail_electric ship" speed="13.89" length="2.41" shape="947.76,262.29 947.03,263.59 946.23,264.06"/>
    </edge>
    <edge id=":1505184316_7" function="internal">
        <lane id=":1505184316_7_0" index="0" speed="13.89" length="2.41" shape="946.23,264.06 945.38,263.71 944.46,262.54"/>
    </edge>
    <edge id=":1505184318_0" function="internal">
        <lane id=":1505184318_0_0" index="0" disallow="tram rail_urban rail rail_electric ship" speed="13.89" length="0.10" shape="945.69,324.21 945.69,324.21"/>
        <lane id=":1505184318_0_1" index="1" disallow="tram rail_urban rail rail_electric ship" speed="13.89" length="0.10" shape="948.98,323.97 948.98,323.97"/>
    </edge>
    <edge id=":1505184318_2" function="internal">
        <lane id=":1505184318_2_0" index="0" disallow="tram rail_urban rail rail_electric ship" speed="13.89" length="2.41" shape="948.98,323.97 949.71,322.67 950.50,322.20"/>
    </edge>
    <edge id=":1505184318_6" function="internal">
        <lane id=":1505184318_6_0" index="0" speed="13.89" length="2.41" shape="950.50,322.20 951.36,322.55 952.27,323.72"/>
    </edge>
    <edge id=":1505184318_3" function="internal">
        <lane id=":1505184318_3_0" index="0" disallow="tram rail_urban rail rail_electric ship" speed="13.89" length="0.10" shape="955.56,323.48 955.56,323.48"/>
        <lane id=":1505184318_3_1" index="1" disallow="tram rail_urban rail rail_electric ship" speed="13.89" length="0.10" shape="952.27,323.73 952.27,323.72"/>
    </edge>
    <edge id=":1505184318_5" function="internal">
        <lane id=":1505184318_5_0" index="0" disallow="tram rail_urban rail rail_electric ship" speed="13.89" length="2.41" shape="952.27,323.73 951.54,325.02 950.74,325.49"/>
    </edge>
    <edge id=":1505184318_7" function="internal">
        <lane id=":1505184318_7_0" index="0" speed="13.89" length="2.41" shape="950.74,325.49 949.89,325.14 948.98,323.97"/>
    </edge>
    <edge id=":1505184321_0" function="internal">
        <lane id=":1505184321_0_0" index="0" disallow="tram rail_urban rail rail_electric ship" speed="13.89" length="0.10" shape="938.23,338.76 938.23,338.76"/>
    </edge>
    <edge id=":1505184322_0" function="internal">
        <lane id=":1505184322_0_0" index="0" disallow="tram rail_urban rail rail_electric ship" speed="13.89" length="0.80" shape="957.98,351.66 958.09,352.01 958.15,352.24 958.18,352.49 958.21,352.84"/>
        <lane id=":1505184322_0_1" index="1" disallow="tram rail_urban rail rail_electric ship" speed="13.89" length="0.80" shape="954.84,352.70 954.88,352.81 954.90,352.89 954.91,352.96 954.92,353.08"/>
    </edge>
    <edge id=":1505184323_0" function="internal">
        <lane id=":1505184323_0_0" index="0" disallow="tram rail_urban rail rail_electric ship" speed="13.89" length="0.81" shape="947.10,354.39 947.08,354.03 947.08,353.79 947.10,353.54 947.17,353.18"/>
        <lane id=":1505184323_0_1" index="1" disallow="tram rail_urban rail rail_electric ship" speed="13.89" length="0.81" shape="950.39,354.17 950.38,354.05 950.38,353.97 950.39,353.89 950.41,353.77"/>
    </edge>
    <edge id=":1505184324_0" function="internal">
        <lane id=":1505184324_0_0" index="0" disallow="tram rail_urban rail rail_electric ship" speed="13.89" length="0.10" shape="964.16,435.48 964.16,435.48"/>
        <lane id=":1505184324_0_1" index="1" disallow="tram rail_urban rail rail_electric ship" speed="13.89" length="0.10" shape="960.87,435.71 960.87,435.71"/>
    </edge>
    <edge id=":1505184326_0" function="internal">
        <lane id=":1505184326_0_0" index="0" disallow="tram rail_urban rail rail_electric ship" speed="13.89" length="0.10" shape="965.85,459.04 965.85,459.04"/>
        <lane id=":1505184326_0_1" index="1" disallow="tram rail_urban rail rail_electric ship" speed="13.89" length="0.10" shape="962.56,459.28 962.56,459.28"/>
    </edge>
    <edge id=":1505184327_0" function="internal">
        <lane id=":1505184327_0_0" index="0" disallow="tram rail_urban rail rail_electric ship" speed="13.89" length="0.10" shape="967.03,475.42 967.03,475.41"/>
        <lane id=":1505184327_0_1" index="1" disallow="tram rail_urban rail rail_electric ship" speed="13.89" length="0.10" shape="963.74,475.65 963.74,475.65"/>
    </edge>
    <edge id=":1505184328_0" function="internal">
        <lane id=":1505184328_0_0" index="0" disallow="tram rail_urban rail rail_electric ship" speed="13.89" length="0.10" shape="955.52,476.73 955.52,476.73"/>
        <lane id=":1505184328_0_1" index="1" disallow="tram rail_urban rail rail_electric ship" speed="13.89" length="0.10" shape="958.82,476.50 958.82,476.50"/>
    </edge>
    <edge id=":1505184329_0" function="internal">
        <lane id=":1505184329_0_0" index="0" disallow="tram rail_urban rail rail_electric ship" speed="13.89" length="4.82" shape="986.43,492.54 987.73,493.28 988.19,494.07 987.84,494.92 986.66,495.83"/>
    </edge>
    <edge id=":1505184330_0" function="internal">
        <lane id=":1505184330_0_0" index="0" disallow="tram rail_urban rail rail_electric ship" speed="13.89" length="5.00" shape="971.69,496.87 970.35,497.15 969.42,497.80 968.91,498.81 968.81,500.18"/>
    </edge>
    <edge id=":1505184330_1" function="internal">
        <lane id=":1505184330_1_0" index="0" disallow="tram rail_urban rail rail_electric ship" speed="13.89" length="8.33" shape="971.69,496.87 963.37,497.43"/>
    </edge>
    <edge id=":1505184330_2" function="internal">
        <lane id=":1505184330_2_0" index="0" disallow="tram rail_urban rail rail_electric ship" speed="13.89" length="4.82" shape="971.69,496.87 970.40,496.13 969.93,495.33 970.28,494.48 971.46,493.57"/>
    </edge>
    <edge id=":1505184330_3" function="internal">
        <lane id=":1505184330_3_0" index="0" disallow="tram rail_urban rail rail_electric ship" speed="13.89" length="5.03" shape="968.13,490.67 968.42,492.02 969.07,492.96 970.09,493.47 971.46,493.57"/>
    </edge>
    <edge id=":1505184330_4" function="internal">
        <lane id=":1505184330_4_0" index="0" disallow="tram rail_urban rail rail_electric ship" speed="13.89" length="9.53" shape="968.13,490.67 968.81,500.18"/>
        <lane id=":1505184330_4_1" index="1" disallow="tram rail_urban rail rail_electric ship" speed="13.89" length="9.53" shape="964.84,490.91 965.52,500.41"/>
    </edge>
    <edge id=":1505184330_6" function="internal">
        <lane id=":1505184330_6_0" index="0" disallow="tram rail_urban rail rail_electric ship" speed="13.89" length="9.32" shape="962.16,494.20 971.46,493.57"/>
    </edge>
    <edge id=":1505184331_0" function="internal">
        <lane id=":1505184331_0_0" index="0" disallow="tram rail_urban rail rail_electric ship" speed="13.89" length="0.10" shape="941.38,498.82 941.38,498.82"/>
    </edge>
    <edge id=":1505184331_1" function="internal">
        <lane id=":1505184331_1_0" index="0" disallow="tram rail_urban rail rail_electric ship" speed="13.89" length="2.41" shape="941.38,498.82 940.09,498.08 939.63,497.28"/>
    </edge>
    <edge id=":1505184331_4" function="internal">
        <lane id=":1505184331_4_0" index="0" speed="13.89" length="2.41" shape="939.63,497.28 939.99,496.43 941.18,495.53"/>
    </edge>
    <edge id=":1505184331_2" function="internal">
        <lane id=":1505184331_2_0" index="0" disallow="tram rail_urban rail rail_electric ship" speed="13.89" length="0.10" shape="941.18,495.53 941.18,495.53"/>
    </edge>
    <edge id=":1505184331_3" function="internal">
        <lane id=":1505184331_3_0" index="0" disallow="tram rail_urban rail rail_electric ship" speed="13.89" length="2.41" shape="941.18,495.53 942.46,496.28 942.92,497.07"/>
    </edge>
    <edge id=":1505184331_5" function="internal">