    <tazs>
        <taz id="99" edges="1/10to1/11 1/10to1/9 1/10to16/10 1/10to2/10 1/11to1/10 1/11to1/12 1/11to16/11 1/11to2/11 1/12to1/11 1/12to1/13 1/12to16/12 1/12to2/12 1/13to1/12 1/13to1/14 1/13to16/13 1/13to2/13 1/14to1/13 1/14to1/15 1/14to16/14 1/14to2/14 1/15to1/14 1/15to16/15 1/15to2/15 1/16to16/16 1/16to2/16 1/1to1/2 1/1to16/1 1/1to2/1 1/2to1/1 1/2to1/3 1/2to16/2 1/2to2/2 1/3to1/2 1/3to1/4 1/3to16/3 1/3to2/3 1/4to1/3 1/4to1/5 1/4to16/4 1/4to2/4 1/5to1/4 1/5to1/6 1/5to16/5 1/5to2/5 1/6to1/5 1/6to1/7 1/6to16/6 1/6to2/6 1/7to1/6 1/7to1/8 1/7to16/7 1/7to2/7 1/8to1/7 1/8to1/9 1/8to16/8 1/8to2/8 1/9to1/10 1/9to1/8 1/9to16/9 1/9to2/9 10/10to10/11 10/10to10/9 10/10to11/10 10/10to9/10 10/11to10/10 10/11to10/12 10/11to11/11 10/11to9/11 10/12to10/11 10/12to10/13 10/12to11/12 10/12to9/12 10/13to10/12 10/13to10/14 10/13to11/13 10/13to9/13 10/14to10/13 10/14to10/15 10/14to11/14 10/14to9/14 10/15to10/14 10/15to10/16 10/15to11/15 10/15to9/15 10/16to10/15 10/16to11/16 10/16to9/16 10/1to10/2 10/1to11/1 10/1to9/1 10/2to10/1 10/2to10/3 10/2to11/2 10/2to9/2 10/3to10/2 10/3to10/4 10/3to11/3 10/3to9/3 10/4to10/3 10/4to10/5 10/4to11/4 10/4to9/4 10/5to10/4 10/5to10/6 10/5to11/5 10/5to9/5 10/6to10/5 10/6to10/7 10/6to11/6 10/6to9/6 10/7to10/6 10/7to10/8 10/7to11/7 10/7to9/7 10/8to10/7 10/8to10/9 10/8to11/8 10/8to9/8 10/9to10/10 10/9to10/8 10/9to11/9 10/9to9/9 11/10to10/10 11/10to11/11 11/10to11/9 11/10to12/10 11/11to10/11 11/11to11/10 11/11to11/12 11/11to12/11 11/12to10/12 11/12to11/11 11/12to11/13 11/12to12/12 11/13to10/13 11/13to11/12 11/13to11/14 11/13to12/13 11/14to10/14 11/14to11/13 11/14to11/15 11/14to12/14 11/15to10/15 11/15to11/14 11/15to12/15 11/16to10/16 11/16to12/16 11/1to10/1 11/1to11/2 11/1to12/1 11/2to10/2 11/2to11/1 11/2to11/3 11/2to12/2 11/3to10/3 11/3to11/2 11/3to11/4 11/3to12/3 11/4to10/4 11/4to11/3 11/4to11/5 11/4to12/4 11/5to10/5 11/5to11/4 11/5to11/6 11/5to12/5 11/6to10/6 11/6to11/5 11/6to11/7 11/6to12/6 11/7to10/7 11/7to11/6 11/7to11/8 11/7to12/7 11/8to10/8 11/8to11/7 11/8to11/9 11/8to12/8 11/9to10/9 11/9to11/10 11/9to11/8 11/9to12/9 12/10to11/10 12/10to12/11 12/10to12/9 12/10to13/10 12/11to11/11 12/11to12/10 12/11to12/12 12/11to13/11 12/12to11/12 12/12to12/11 12/12to12/13 12/12to13/12 12/13to11/13 12/13to12/12 12/13to12/14 12/13to13/13 12/14to11/14 12/14to12/13 12/14to12/15 12/14to13/14 12/15to11/15 12/15to12/14 12/15to12/16 12/15to13/15 12/16to11/16 12/16to12/15 12/16to13/16 12/1to11/1 12/1to12/2 12/1to13/1 12/2to11/2 12/2to12/1 12/2to12/3 12/2to13/2 12/3to11/3 12/3to12/2 12/3to12/4 12/3to13/3 12/4to11/4 12/4to12/3 12/4to12/5 12/4to13/4 12/5to11/5 12/5to12/4 12/5to12/6 12/5to13/5 12/6to11/6 12/6to12/5 12/6to12/7 12/6to13/6 12/7to11/7 12/7to12/6 12/7to12/8 12/7to13/7 12/8to11/8 12/8to12/7 12/8to12/9 12/8to13/8 12/9to11/9 12/9to12/10 12/9to12/8 12/9to13/9 13/10to12/10 13/10to13/11 13/10to13/9 13/10to14/10 13/11to12/11 13/11to13/10 13/11to13/12 13/11to14/11 13/12to12/12 13/12to13/11 13/12to13/13 13/12to14/12 13/13to12/13 13/13to13/12 13/13to13/14 13/13to14/13 13/14to12/14 13/14to13/13 13/14to13/15 13/14to14/14 13/15to12/15 13/15to13/14 13/15to14/15 13/16to12/16 13/16to14/16 13/1to12/1 13/1to13/2 13/1to14/1 13/2to12/2 13/2to13/1 13/2to13/3 13/2to14/2 13/3to12/3 13/3to13/2 13/3to13/4 13/3to14/3 13/4to12/4 13/4to13/3 13/4to13/5 13/4to14/4 13/5to12/5 13/5to13/4 13/5to13/6 13/5to14/5 13/6to12/6 13/6to13/5 13/6to13/7 13/6to14/6 13/7to12/7 13/7to13/6 13/7to13/8 13/7to14/7 13/8to12/8 13/8to13/7 13/8to13/9 13/8to14/8 13/9to12/9 13/9to13/10 13/9to13/8 13/9to14/9 14/10to13/10 14/10to14/11 14/10to14/9 14/10to15/10 14/11to13/11 14/11to14/10 14/11to14/12 14/11to15/11 14/12to13/12 14/12to14/11 14/12to14/13 14/12to15/12 14/13to13/13 14/13to14/12 14/13to14/14 14/13to15/13 14/14to13/14 14/14to14/13 14/14to14/15 14/14to15/14 14/15to13/15 14/15to14/14 14/15to14/16 14/15to15/15 14/16to13/16 14/16to14/15 14/16to15/16 14/1to13/1 14/1to14/2 14/1to15/1 14/2to13/2 14/2to14/1 14/2to14/3 14/2to15/2 14/3to13/3 14/3to14/2 14/3to14/4 14/3to15/3 14/4to13/4 14/4to14/3 14/4to14/5 14/4to15/4 14/5to13/5 14/5to14/4 14/5to14/6 14/5to15/5 14/6to13/6 14/6to14/5 14/6to14/7 14/6to15/6 14/7to13/7 14/7to14/6 14/7to14/8 14/7to15/7 14/8to13/8 14/8to14/7 14/8to14/9 14/8to15/8 14/9to13/9 14/9to14/10 14/9to14/8 14/9to15/9 15/10to14/10 15/10to15/11 15/10to15/9 15/10to16/10 15/11to14/11 15/11to15/10 15/11to15/12 15/11to16/11 15/12to14/12 15/12to15/11 15/12to15/13 15/12to16/12 15/13to14/13 15/13to15/12 15/13to15/14 15/13to16/13 15/14to14/14 15/14to15/13 15/14to15/15 15/14to16/14 15/15to14/15 15/15to15/14 15/15to16/15 15/16to14/16 15/16to16/16 15/1to14/1 15/1to15/2 15/1to16/1 15/2to14/2 15/2to15/1 15/2to15/3 15/2to16/2 15/3to14/3 15/3to15/2 15/3to15/4 15/3to16/3 15/4to14/4 15/4to15/3 15/4to15/5 15/4to16/4 15/5to14/5 15/5to15/4 15/5to15/6 15/5to16/5 15/6to14/6 15/6to15/5 15/6to15/7 15/6to16/6 15/7to14/7 15/7to15/6 15/7to15/8 15/7to16/7 15/8to14/8 15/8to15/7 15/8to15/9 15/8to16/8 15/9to14/9 15/9to15/10 15/9to15/8 15/9to16/9 2/10to1/10 2/10to2/11 2/10to2/9 2/10to3/10 2/11to1/11 2/11to2/10 2/11to2/12 2/11to3/11 2/12to1/12 2/12to2/11 2/12to2/13 2/12to3/12 2/13to1/13 2/13to2/12 2/13to2/14 2/13to3/13 2/14to1/14 2/14to2/13 2/14to2/15 2/14to3/14 2/15to1/15 2/15to2/14 2/15to2/16 2/15to3/15 2/16to1/16 2/16to2/15 2/16to3/16 2/1to1/1 2/1to2/2 2/1to3/1 2/2to1/2 2/2to2/1 2/2to2/3 2/2to3/2 2/3to1/3 2/3to2/2 2/3to2/4 2/3to3/3 2/4to1/4 2/4to2/3 2/4to2/5 2/4to3/4 2/5to1/5 2/5to2/4 2/5to2/6 2/5to3/5 2/6to1/6 2/6to2/5 2/6to2/7 2/6to3/6 2/7to1/7 2/7to2/6 2/7to2/8 2/7to3/7 2/8to1/8 2/8to2/7 2/8to2/9 2/8to3/8 2/9to1/9 2/9to2/10 2/9to2/8 2/9to3/9 3/10to2/10 3/10to3/11 3/10to3/9 3/10to4/10 3/11to2/11 3/11to3/10 3/11to3/12 3/11to4/11 3/12to2/12 3/12to3/11 3/12to3/13 3/12to4/12 3/13to2/13 3/13to3/12 3/13to3/14 3/13to4/13 3/14to2/14 3/14to3/13 3/14to3/15 3/14to4/14 3/15to2/15 3/15to3/14 3/15to4/15 3/16to2/16 3/16to4/16 3/1to2/1 3/1to3/2 3/1to4/1 3/2to2/2 3/2to3/1 3/2to3/3 3/2to4/2 3/3to2/3 3/3to3/2 3/3to3/4 3/3to4/3 3/4to2/4 3/4to3/3 3/4to3/5 3/4to4/4 3/5to2/5 3/5to3/4 3/5to3/6 3/5to4/5 3/6to2/6 3/6to3/5 3/6to3/7 3/6to4/6 3/7to2/7 3/7to3/6 3/7to3/8 3/7to4/7 3/8to2/8 3/8to3/7 3/8to3/9 3/8to4/8 3/9to2/9 3/9to3/10 3/9to3/8 3/9to4/9 4/10to3/10 4/10to4/11 4/10to4/9 4/10to5/10 4/11to3/11 4/11to4/10 4/11to4/12 4/11to5/11 4/12to3/12 4/12to4/11 4/12to4/13 4/12to5/12 4/13to3/13 4/13to4/12 4/13to4/14 4/13to5/13 4/14to3/14 4/14to4/13 4/14to4/15 4/14to5/14 4/15to3/15 4/15to4/14 4/15to4/16 4/15to5/15 4/16to3/16 4/16to4/15 4/16to5/16 4/1to3/1 4/1to4/2 4/1to5/1 4/2to3/2 4/2to4/1 4/2to4/3 4/2to5/2 4/3to3/3 4/3to4/2 4/3to4/4 4/3to5/3 4/4to3/4 4/4to4/3 4/4to4/5 4/4to5/4 4/5to3/5 4/5to4/4 4/5to4/6 4/5to5/5 4/6to3/6 4/6to4/5 4/6to4/7 4/6to5/6 4/7to3/7 4/7to4/6 4/7to4/8 4/7to5/7 4/8to3/8 4/8to4/7 4/8to4/9 4/8to5/8 4/9to3/9 4/9to4/10 4/9to4/8 4/9to5/9 5/10to4/10 5/10to5/11 5/10to5/9 5/10to6/10 5/11to4/11 5/11to5/10 5/11to5/12 5/11to6/11 5/12to4/12 5/12to5/11 5/12to5/13 5/12to6/12 5/13to4/13 5/13to5/12 5/13to5/14 5/13to6/13 5/14to4/14 5/14to5/13 5/14to5/15 5/14to6/14 5/15to4/15 5/15to5/14 5/15to6/15 5/16to4/16 5/16to6/16 5/1to4/1 5/1to5/2 5/1to6/1 5/2to4/2 5/2to5/1 5/2to5/3 5/2to6/2 5/3to4/3 5/3to5/2 5/3to5/4 5/3to6/3 5/4to4/4 5/4to5/3 5/4to5/5 5/4to6/4 5/5to4/5 5/5to5/4 5/5to5/6 5/5to6/5 5/6to4/6 5/6to5/5 5/6to5/7 5/6to6/6 5/7to4/7 5/7to5/6 5/7to5/8 5/7to6/7 5/8to4/8 5/8to5/7 5/8to5/9 5/8to6/8 5/9to4/9 5/9to5/10 5/9to5/8 5/9to6/9 6/10to5/10 6/10to6/11 6/10to6/9 6/10to7/10 6/11to5/11 6/11to6/10 6/11to6/12 6/11to7/11 6/12to5/12 6/12to6/11 6/12to6/13 6/12to7/12 6/13to5/13 6/13to6/12 6/13to6/14 6/13to7/13 6/14to5/14 6/14to6/13 6/14to6/15 6/14to7/14 6/15to5/15 6/15to6/14 6/15to6/16 6/15to7/15 6/16to5/16 6/16to6/15 6/16to7/16 6/1to5/1 6/1to6/2 6/1to7/1 6/2to5/2 6/2to6/1 6/2to6/3 6/2to7/2 6/3to5/3 6/3to6/2 6/3to6/4 6/3to7/3 6/4to5/4 6/4to6/3 6/4to6/5 6/4to7/4 6/5to5/5 6/5to6/4 6/5to6/6 6/5to7/5 6/6to5/6 6/6to6/5 6/6to6/7 6/6to7/6 6/7to5/7 6/7to6/6 6/7to6/8 6/7to7/7 6/8to5/8 6/8to6/7 6/8to6/9 6/8to7/8 6/9to5/9 6/9to6/10 6/9to6/8 6/9to7/9 7/10to6/10 7/10to7/11 7/10to7/9 7/10to8/10 7/11to6/11 7/11to7/10 7/11to7/12 7/11to8/11 7/12to6/12 7/12to7/11 7/12to7/13 7/12to8/12 7/13to6/13 7/13to7/12 7/13to7/14 7/13to8/13 7/14to6/14 7/14to7/13 7/14to7/15 7/14to8/14 7/15to6/15 7/15to7/14 7/15to8/15 7/16to6/16 7/16to8/16 7/1to6/1 7/1to7/2 7/1to8/1 7/2to6/2 7/2to7/1 7/2to7/3 7/2to8/2 7/3to6/3 7/3to7/2 7/3to7/4 7/3to8/3 7/4to6/4 7/4to7/3 7/4to7/5 7/4to8/4 7/5to6/5 7/5to7/4 7/5to7/6 7/5to8/5 7/6to6/6 7/6to7/5 7/6to7/7 7/6to8/6 7/7to6/7 7/7to7/6 7/7to7/8 7/7to8/7 7/8to6/8 7/8to7/7 7/8to7/9 7/8to8/8 7/9to6/9 7/9to7/10 7/9to7/8 7/9to8/9 8/10to7/10 8/10to8/11 8/10to8/9 8/10to9/10 8/11to7/11 8/11to8/10 8/11to8/12 8/11to9/11 8/12to7/12 8/12to8/11 8/12to8/13 8/12to9/12 8/13to7/13 8/13to8/12 8/13to8/14 8/13to9/13 8/14to7/14 8/14to8/13 8/14to8/15 8/14to9/14 8/15to7/15 8/15to8/14 8/15to8/16 8/15to9/15 8/16to7/16 8/16to8/15 8/16to9/16 8/1to7/1 8/1to8/2 8/1to9/1 8/2to7/2 8/2to8/1 8/2to8/3 8/2to9/2 8/3to7/3 8/3to8/2 8/3to8/4 8/3to9/3 8/4to7/4 8/4to8/3 8/4to8/5 8/4to9/4 8/5to7/5 8/5to8/4 8/5to8/6 8/5to9/5 8/6to7/6 8/6to8/5 8/6to8/7 8/6to9/6 8/7to7/7 8/7to8/6 8/7to8/8 8/7to9/7 8/8to7/8 8/8to8/7 8/8to8/9 8/8to9/8 8/9to7/9 8/9to8/10 8/9to8/8 8/9to9/9 9/10to10/10 9/10to8/10 9/10to9/11 9/10to9/9 9/11to10/11 9/11to8/11 9/11to9/10 9/11to9/12 9/12to10/12 9/12to8/12 9/12to9/11 9/12to9/13 9/13to10/13 9/13to8/13 9/13to9/12 9/13to9/14 9/14to10/14 9/14to8/14 9/14to9/13 9/14to9/15 9/15to10/15 9/15to8/15 9/15to9/14 9/16to10/16 9/16to8/16 9/1to10/1 9/1to8/1 9/1to9/2 9/2to10/2 9/2to8/2 9/2to9/1 9/2to9/3 9/3to10/3 9/3to8/3 9/3to9/2 9/3to9/4 9/4to10/4 9/4to8/4 9/4to9/3 9/4to9/5 9/5to10/5 9/5to8/5 9/5to9/4 9/5to9/6 9/6to10/6 9/6to8/6 9/6to9/5 9/6to9/7 9/7to10/7 9/7to8/7 9/7to9/6 9/7to9/8 9/8to10/8 9/8to8/8 9/8to9/7 9/8to9/9 9/9to10/9 9/9to8/9 9/9to9/10 9/9to9/8" />
	<!-- N -->
        <taz id="1">
            <tazSource id="5/16to5/15" weight="1"/>
	    <tazSink id="13/15to13/16" weight="1"/>
        </taz>
	<!-- E -->
        <taz id="2">
            <tazSource id="1/16to1/15" weight="1"/>
	    <tazSink id="9/15to9/16" weight="1"/>
        </taz>
	<!-- S -->
        <taz id="4">
            <tazSource id="13/16to13/15" weight="1"/>
	    <tazSink id="5/15to5/16" weight="1"/>
        </taz>
	<!-- W -->
        <taz id="3">
            <tazSource id="9/16to9/15" weight="1"/>
	    <tazSink id="1/15to1/16" weight="1"/>
        </taz>
	<!-- NE -->
        <taz id="5">
            <tazSource id="3/16to3/15" weight="1"/>
	    <tazSink id="11/15to11/16" weight="1"/>
        </taz>
	<!-- SE -->
        <taz id="6">
            <tazSource id="15/16to15/15" weight="1"/>
	    <tazSink id="7/15to7/16" weight="1"/>
        </taz>
	<!-- SW -->
        <taz id="7">
            <tazSource id="11/16to11/15" weight="1"/>
	    <tazSink id="3/15to3/16" weight="1"/>
        </taz>
	<!-- NW -->
        <taz id="8">
            <tazSource id="7/16to7/15" weight="1"/>
	    <tazSink id="15/15to15/16" weight="1"/>
        </taz>
    </tazs>
</net>
