<?xml version="1.0" encoding="UTF-8"?>

<!-- generated on Sun Oct 21 17:00:16 2018 by SUMO duarouter Version 0.27.1
<?xml version="1.0" encoding="UTF-8"?>

<configuration xmlns:xsi="http://www.w3.org/2001/XMLSchema-instance" xsi:noNamespaceSchemaLocation="http://sumo.dlr.de/xsd/duarouterConfiguration.xsd">

    <input>
        <net-file value="radial16_XXXL_Bastra_rand05x8_timeALL_fulltraffic_logit100.net.xml"/>
        <trip-files value="radial16_XXXL_Bastra_rand05x8_timeALL_fulltraffic_logit100.trip.xml"/>
    </input>

    <output>
        <output-file value="radial16_XXXL_Bastra_rand05x8_timeALL_fulltraffic_logit100.routes.xml"/>
    </output>

    <processing>
        <ignore-errors value="true"/>
        <max-alternatives value="10"/>
        <remove-loops value="true"/>
        <repair value="true"/>
        <repair.from value="true"/>
        <repair.to value="true"/>
    </processing>

    <time>
        <begin value="0"/>
        <end value="3600"/>
    </time>

</configuration>
-->

<routes xmlns:xsi="http://www.w3.org/2001/XMLSchema-instance" xsi:noNamespaceSchemaLocation="http://sumo.dlr.de/xsd/routes_file.xsd">
    <vehicle id="14854" depart="0.08" departLane="best" departSpeed="0.00" fromTaz="99" toTaz="99">
        <route edges="2/5to2/6 2/6to2/7 2/7to2/8 2/8to2/9 2/9to2/10 2/10to2/11 2/11to2/12 2/12to2/13 2/13to2/14 2/14to2/15 2/15to2/16 2/16to3/16"/>
    </vehicle>
    <vehicle id="2304" depart="0.19" departLane="best" departSpeed="0.00" fromTaz="2" toTaz="3">
        <route edges="1/16to1/15 1/15to1/16"/>
    </vehicle>
    <vehicle id="13710" depart="0.24" departLane="best" departSpeed="0.00" fromTaz="99" toTaz="99">
        <route edges="6/9to6/10 6/10to7/10 7/10to8/10 8/10to9/10 9/10to10/10 10/10to10/11 10/11to10/12 10/12to10/13 10/13to10/14 10/14to10/15 10/15to11/15 11/15to12/15 12/15to13/15"/>
    </vehicle>
    <vehicle id="7297" depart="0.33" departLane="best" departSpeed="0.00" fromTaz="4" toTaz="1">
        <route edges="13/16to13/15 13/15to13/16"/>
    </vehicle>
    <vehicle id="6241" depart="0.36" departLane="best" departSpeed="0.00" fromTaz="4" toTaz="1">
        <route edges="13/16to13/15 13/15to13/16"/>
    </vehicle>
    <vehicle id="3126" depart="0.38" departLane="best" departSpeed="0.00" fromTaz="2" toTaz="3">
        <route edges="1/16to1/15 1/15to1/16"/>
    </vehicle>
    <vehicle id="15614" depart="0.40" departLane="best" departSpeed="0.00" fromTaz="99" toTaz="99">
        <route edges="14/6to14/7 14/7to13/7 13/7to12/7 12/7to12/6 12/6to12/5 12/5to13/5"/>
    </vehicle>
    <vehicle id="14542" depart="0.46" departLane="best" departSpeed="0.00" fromTaz="99" toTaz="99">
        <route edges="3/7to4/7 4/7to5/7 5/7to6/7 6/7to7/7 7/7to8/7 8/7to9/7 9/7to10/7 10/7to10/8 10/8to10/9 10/9to10/10 10/10to10/11 10/11to10/12 10/12to10/13 10/13to10/14 10/14to10/15 10/15to10/16"/>
    </vehicle>
    <vehicle id="74" depart="0.56" departLane="best" departSpeed="0.00" fromTaz="1" toTaz="4">
        <route edges="5/16to5/15 5/15to5/16"/>
    </vehicle>
    <vehicle id="7255" depart="0.57" departLane="best" departSpeed="0.00" fromTaz="4" toTaz="1">
        <route edges="13/16to13/15 13/15to13/16"/>
    </vehicle>
    <vehicle id="11132" depart="0.76" departLane="best" departSpeed="0.00" fromTaz="99" toTaz="99">
        <route edges="2/4to1/4 1/4to16/4 16/4to15/4 15/4to14/4 14/4to13/4"/>
    </vehicle>
    <vehicle id="65" depart="0.79" departLane="best" departSpeed="0.00" fromTaz="1" toTaz="4">
        <route edges="5/16to5/15 5/15to5/16"/>
    </vehicle>
    <vehicle id="15107" depart="0.88" departLane="best" departSpeed="0.00" fromTaz="99" toTaz="99">
        <route edges="15/6to14/6 14/6to13/6 13/6to12/6 12/6to12/7 12/7to12/8 12/8to12/9 12/9to12/10 12/10to12/11 12/11to12/12 12/12to12/13 12/13to12/14 12/14to12/15 12/15to12/16 12/16to11/16"/>
    </vehicle>
    <vehicle id="691" depart="0.90" departLane="best" departSpeed="0.00" fromTaz="1" toTaz="4">
        <route edges="5/16to5/15 5/15to5/16"/>
    </vehicle>
    <vehicle id="4775" depart="0.91" departLane="best" departSpeed="0.00" fromTaz="3" toTaz="2">
        <route edges="9/16to9/15 9/15to9/16"/>
    </vehicle>
    <vehicle id="7388" depart="0.94" departLane="best" departSpeed="0.00" fromTaz="4" toTaz="1">
        <route edges="13/16to13/15 13/15to13/16"/>
    </vehicle>
    <vehicle id="8713" depart="0.97" departLane="best" departSpeed="0.00" fromTaz="99" toTaz="99">
        <route edges="12/13to12/12 12/12to11/12 11/12to10/12 10/12to10/13 10/13to10/14 10/14to10/15 10/15to9/15 9/15to8/15"/>
    </vehicle>
    <vehicle id="10494" depart="0.98" departLane="best" departSpeed="0.00" fromTaz="99" toTaz="99">
        <route edges="4/5to4/4 4/4to5/4 5/4to6/4 6/4to7/4 7/4to8/4 8/4to9/4 9/4to10/4 10/4to11/4 11/4to12/4 12/4to13/4"/>
    </vehicle>
    <vehicle id="1649" depart="1.02" departLane="best" departSpeed="0.00" fromTaz="1" toTaz="4">
        <route edges="5/16to5/15 5/15to5/16"/>
    </vehicle>
    <vehicle id="7869" depart="1.03" departLane="best" departSpeed="0.00" fromTaz="4" toTaz="1">
        <route edges="13/16to13/15 13/15to13/16"/>
    </vehicle>
    <vehicle id="14353" depart="1.06" departLane="best" departSpeed="0.00" fromTaz="99" toTaz="99">
        <route edges="9/13to8/13 8/13to8/12 8/12to8/11 8/11to8/10 8/10to8/9 8/9to8/8 8/8to8/7 8/7to8/6 8/6to8/5 8/5to8/4 8/4to7/4"/>
    </vehicle>
    <vehicle id="6068" depart="1.12" departLane="best" departSpeed="0.00" fromTaz="4" toTaz="1">
        <route edges="13/16to13/15 13/15to13/16"/>
    </vehicle>
    <vehicle id="9341" depart="1.18" departLane="best" departSpeed="0.00" fromTaz="99" toTaz="99">
        <route edges="9/6to9/7 9/7to8/7 8/7to8/8 8/8to8/9 8/9to8/10 8/10to8/11 8/11to8/12 8/12to8/13 8/13to8/14"/>
    </vehicle>
    <vehicle id="14877" depart="1.19" departLane="best" departSpeed="0.00" fromTaz="99" toTaz="99">
        <route edges="6/12to5/12 5/12to4/12 4/12to3/12 3/12to2/12 2/12to1/12 1/12to1/11 1/11to1/10 1/10to1/9 1/9to1/8 1/8to16/8"/>
    </vehicle>
    <vehicle id="1951" depart="1.54" departLane="best" departSpeed="0.00" fromTaz="1" toTaz="4">
        <route edges="5/16to5/15 5/15to5/16"/>
    </vehicle>
    <vehicle id="12143" depart="1.56" departLane="best" departSpeed="0.00" fromTaz="99" toTaz="99">
        <route edges="12/10to12/11 12/11to13/11 13/11to14/11 14/11to15/11 15/11to16/11 16/11to1/11 1/11to1/12 1/12to1/13 1/13to2/13 2/13to3/13 3/13to4/13"/>
    </vehicle>
    <vehicle id="2009" depart="1.59" departLane="best" departSpeed="0.00" fromTaz="2" toTaz="3">
        <route edges="1/16to1/15 1/15to1/16"/>
    </vehicle>
    <vehicle id="13383" depart="1.65" departLane="best" departSpeed="0.00" fromTaz="99" toTaz="99">
        <route edges="11/16to10/16 10/16to10/15 10/15to10/14 10/14to10/13 10/13to11/13 11/13to12/13 12/13to13/13 13/13to13/12"/>
    </vehicle>
    <vehicle id="15658" depart="1.65" departLane="best" departSpeed="0.00" fromTaz="99" toTaz="99">
        <route edges="4/8to4/7 4/7to5/7 5/7to6/7 6/7to7/7 7/7to8/7 8/7to9/7 9/7to10/7 10/7to10/6 10/6to11/6"/>
    </vehicle>
    <vehicle id="3451" depart="1.68" departLane="best" departSpeed="0.00" fromTaz="2" toTaz="3">
        <route edges="1/16to1/15 1/15to1/16"/>
    </vehicle>
    <vehicle id="15284" depart="1.77" departLane="best" departSpeed="0.00" fromTaz="99" toTaz="99">
        <route edges="9/1to10/1 10/1to11/1 11/1to12/1 12/1to13/1 13/1to14/1 14/1to15/1 15/1to16/1 16/1to1/1 1/1to1/2 1/2to1/3 1/3to1/4 1/4to1/5 1/5to1/6 1/6to1/7 1/7to1/8 1/8to1/9 1/9to1/10 1/10to1/11 1/11to1/12 1/12to1/13 1/13to1/14 1/14to2/14"/>
    </vehicle>
    <vehicle id="13528" depart="1.81" departLane="best" departSpeed="0.00" fromTaz="99" toTaz="99">
        <route edges="14/8to13/8 13/8to12/8 12/8to12/7 12/7to12/6 12/6to12/5 12/5to12/4"/>
    </vehicle>
    <vehicle id="13436" depart="1.83" departLane="best" departSpeed="0.00" fromTaz="99" toTaz="99">
        <route edges="12/5to11/5 11/5to10/5 10/5to9/5 9/5to8/5 8/5to7/5 7/5to7/6 7/6to7/7 7/7to7/8 7/8to7/9 7/9to7/10 7/10to7/11 7/11to8/11"/>
    </vehicle>
    <vehicle id="145" depart="1.83" departLane="best" departSpeed="0.00" fromTaz="1" toTaz="4">
        <route edges="5/16to5/15 5/15to5/16"/>
    </vehicle>
    <vehicle id="14573" depart="1.92" departLane="best" departSpeed="0.00" fromTaz="99" toTaz="99">
        <route edges="6/3to6/2 6/2to5/2 5/2to5/3 5/3to5/4 5/4to5/5 5/5to5/6 5/6to5/7 5/7to5/8 5/8to5/9 5/9to5/10 5/10to5/11 5/11to5/12"/>
    </vehicle>
    <vehicle id="9972" depart="1.92" departLane="best" departSpeed="0.00" fromTaz="99" toTaz="99">
        <route edges="14/8to15/8 15/8to16/8 16/8to1/8 1/8to1/7 1/7to1/6 1/6to1/5 1/5to1/4 1/4to1/3 1/3to2/3"/>
    </vehicle>
    <vehicle id="4970" depart="1.92" departLane="best" departSpeed="0.00" fromTaz="3" toTaz="2">
        <route edges="9/16to9/15 9/15to9/16"/>
    </vehicle>
    <vehicle id="5131" depart="2.01" departLane="best" departSpeed="0.00" fromTaz="3" toTaz="2">
        <route edges="9/16to9/15 9/15to9/16"/>
    </vehicle>
    <vehicle id="15865" depart="2.36" departLane="best" departSpeed="0.00" fromTaz="99" toTaz="99">
        <route edges="9/9to9/10 9/10to8/10 8/10to7/10 7/10to6/10 6/10to5/10 5/10to4/10 4/10to3/10 3/10to3/9 3/9to3/8 3/8to3/7 3/7to2/7"/>
    </vehicle>
    <vehicle id="4525" depart="2.54" departLane="best" departSpeed="0.00" fromTaz="3" toTaz="2">
        <route edges="9/16to9/15 9/15to9/16"/>
    </vehicle>
    <vehicle id="8097" depart="2.56" departLane="best" departSpeed="0.00" fromTaz="99" toTaz="99">
        <route edges="9/12to9/13 9/13to10/13 10/13to10/14 10/14to10/15 10/15to11/15 11/15to12/15 12/15to12/14"/>
    </vehicle>
    <vehicle id="4855" depart="2.66" departLane="best" departSpeed="0.00" fromTaz="3" toTaz="2">
        <route edges="9/16to9/15 9/15to9/16"/>
    </vehicle>
    <vehicle id="7144" depart="2.68" departLane="best" departSpeed="0.00" fromTaz="4" toTaz="1">
        <route edges="13/16to13/15 13/15to13/16"/>
    </vehicle>
    <vehicle id="1514" depart="2.75" departLane="best" departSpeed="0.00" fromTaz="1" toTaz="4">
        <route edges="5/16to5/15 5/15to5/16"/>
    </vehicle>
    <vehicle id="6575" depart="2.79" departLane="best" departSpeed="0.00" fromTaz="4" toTaz="1">
        <route edges="13/16to13/15 13/15to13/16"/>
    </vehicle>
    <vehicle id="293" depart="2.83" departLane="best" departSpeed="0.00" fromTaz="1" toTaz="4">
        <route edges="5/16to5/15 5/15to5/16"/>
    </vehicle>
    <vehicle id="11149" depart="2.85" departLane="best" departSpeed="0.00" fromTaz="99" toTaz="99">
        <route edges="8/6to7/6 7/6to6/6 6/6to6/7 6/7to6/8 6/8to6/9 6/9to6/10 6/10to6/11 6/11to6/12 6/12to6/13 6/13to6/14 6/14to6/15 6/15to6/16"/>
    </vehicle>
    <vehicle id="8882" depart="2.86" departLane="best" departSpeed="0.00" fromTaz="99" toTaz="99">
        <route edges="4/10to4/9 4/9to4/8 4/8to5/8 5/8to6/8 6/8to7/8 7/8to7/7"/>
    </vehicle>
    <vehicle id="8222" depart="3.00" departLane="best" departSpeed="0.00" fromTaz="99" toTaz="99">
        <route edges="2/4to2/3 2/3to2/2 2/2to3/2 3/2to4/2 4/2to5/2 5/2to6/2 6/2to7/2 7/2to8/2 8/2to8/3"/>
    </vehicle>
    <vehicle id="752" depart="3.14" departLane="best" departSpeed="0.00" fromTaz="1" toTaz="4">
        <route edges="5/16to5/15 5/15to5/16"/>
    </vehicle>
    <vehicle id="10144" depart="3.17" departLane="best" departSpeed="0.00" fromTaz="99" toTaz="99">
        <route edges="1/12to16/12 16/12to15/12 15/12to14/12 14/12to13/12 13/12to13/11 13/11to13/10 13/10to13/9 13/9to13/8 13/8to13/7 13/7to12/7"/>
    </vehicle>
    <vehicle id="13325" depart="3.19" departLane="best" departSpeed="0.00" fromTaz="99" toTaz="99">
        <route edges="10/4to10/3 10/3to9/3 9/3to8/3 8/3to7/3 7/3to6/3 6/3to6/4 6/4to6/5 6/5to6/6 6/6to6/7 6/7to7/7"/>
    </vehicle>
    <vehicle id="9912" depart="3.21" departLane="best" departSpeed="0.00" fromTaz="99" toTaz="99">
        <route edges="8/4to8/5 8/5to9/5 9/5to10/5 10/5to10/4 10/4to11/4"/>
    </vehicle>
    <vehicle id="8642" depart="3.21" departLane="best" departSpeed="0.00" fromTaz="99" toTaz="99">
        <route edges="13/16to12/16 12/16to11/16 11/16to10/16 10/16to9/16 9/16to8/16 8/16to7/16 7/16to6/16 6/16to6/15 6/15to6/14 6/14to6/13 6/13to6/12 6/12to6/11 6/11to6/10 6/10to6/9 6/9to6/8 6/8to6/7 6/7to6/6 6/6to5/6"/>
    </vehicle>
    <vehicle id="15381" depart="3.24" departLane="best" departSpeed="0.00" fromTaz="99" toTaz="99">
        <route edges="2/8to2/9 2/9to1/9 1/9to16/9 16/9to15/9 15/9to14/9 14/9to13/9 13/9to12/9 12/9to11/9 11/9to10/9 10/9to10/8 10/8to10/7 10/7to10/6 10/6to10/5 10/5to10/4 10/4to10/3 10/3to10/2 10/2to10/1 10/1to9/1"/>
    </vehicle>
    <vehicle id="5460" depart="3.28" departLane="best" departSpeed="0.00" fromTaz="3" toTaz="2">
        <route edges="9/16to9/15 9/15to9/16"/>
    </vehicle>
    <vehicle id="11761" depart="3.29" departLane="best" departSpeed="0.00" fromTaz="99" toTaz="99">
        <route edges="4/5to4/4 4/4to3/4 3/4to2/4 2/4to1/4 1/4to16/4 16/4to15/4 15/4to14/4 14/4to13/4 13/4to13/5 13/5to13/6 13/6to13/7 13/7to13/8 13/8to13/9 13/9to13/10 13/10to14/10"/>
    </vehicle>
    <vehicle id="14678" depart="3.32" departLane="best" departSpeed="0.00" fromTaz="99" toTaz="99">
        <route edges="1/6to1/7 1/7to16/7 16/7to15/7 15/7to14/7 14/7to13/7 13/7to12/7 12/7to11/7 11/7to11/8 11/8to11/9 11/9to11/10 11/10to11/11 11/11to11/12 11/12to11/13 11/13to11/14 11/14to11/15 11/15to11/16 11/16to10/16"/>
    </vehicle>
    <vehicle id="8090" depart="3.42" departLane="best" departSpeed="0.00" fromTaz="99" toTaz="99">
        <route edges="2/13to2/12 2/12to2/11 2/11to2/10 2/10to2/9 2/9to2/8 2/8to2/7 2/7to2/6 2/6to2/5 2/5to2/4 2/4to3/4 3/4to4/4 4/4to5/4 5/4to6/4 6/4to7/4"/>
    </vehicle>
    <vehicle id="13630" depart="3.44" departLane="best" departSpeed="0.00" fromTaz="99" toTaz="99">
        <route edges="16/3to15/3 15/3to14/3 14/3to13/3 13/3to13/4 13/4to13/5"/>
    </vehicle>
    <vehicle id="2653" depart="3.46" departLane="best" departSpeed="0.00" fromTaz="2" toTaz="3">
        <route edges="1/16to1/15 1/15to1/16"/>
    </vehicle>
    <vehicle id="15619" depart="3.52" departLane="best" departSpeed="0.00" fromTaz="99" toTaz="99">
        <route edges="5/2to4/2 4/2to3/2 3/2to2/2 2/2to1/2 1/2to16/2 16/2to15/2 15/2to14/2 14/2to14/3 14/3to14/4 14/4to14/5 14/5to14/6 14/6to14/7 14/7to14/8 14/8to14/9"/>
    </vehicle>
    <vehicle id="6457" depart="3.55" departLane="best" departSpeed="0.00" fromTaz="4" toTaz="1">
        <route edges="13/16to13/15 13/15to13/16"/>
    </vehicle>
    <vehicle id="13576" depart="3.56" departLane="best" departSpeed="0.00" fromTaz="99" toTaz="99">
        <route edges="4/12to5/12 5/12to6/12 6/12to7/12 7/12to8/12 8/12to8/13"/>
    </vehicle>
    <vehicle id="13616" depart="3.60" departLane="best" departSpeed="0.00" fromTaz="99" toTaz="99">
        <route edges="5/2to5/3 5/3to4/3 4/3to3/3 3/3to2/3 2/3to1/3 1/3to16/3 16/3to15/3 15/3to14/3 14/3to14/2 14/2to14/1"/>
    </vehicle>
    <vehicle id="8617" depart="3.61" departLane="best" departSpeed="0.00" fromTaz="99" toTaz="99">
        <route edges="3/9to3/8 3/8to2/8 2/8to1/8 1/8to1/9 1/9to1/10 1/10to1/11 1/11to1/12 1/12to1/13"/>
    </vehicle>
    <vehicle id="8769" depart="3.85" departLane="best" departSpeed="0.00" fromTaz="99" toTaz="99">
        <route edges="15/6to15/7 15/7to16/7 16/7to1/7 1/7to1/8 1/8to1/9 1/9to1/10 1/10to1/11 1/11to1/12 1/12to1/13 1/13to2/13 2/13to3/13 3/13to4/13 4/13to4/14"/>
    </vehicle>
    <vehicle id="4514" depart="3.88" departLane="best" departSpeed="0.00" fromTaz="3" toTaz="2">
        <route edges="9/16to9/15 9/15to9/16"/>
    </vehicle>
    <vehicle id="1456" depart="3.98" departLane="best" departSpeed="0.00" fromTaz="1" toTaz="4">
        <route edges="5/16to5/15 5/15to5/16"/>
    </vehicle>
    <vehicle id="8970" depart="4.11" departLane="best" departSpeed="0.00" fromTaz="99" toTaz="99">
        <route edges="10/12to10/11 10/11to10/10 10/10to10/9 10/9to10/8 10/8to10/7 10/7to10/6 10/6to10/5 10/5to10/4 10/4to10/3 10/3to11/3"/>
    </vehicle>
    <vehicle id="5592" depart="4.19" departLane="best" departSpeed="0.00" fromTaz="3" toTaz="2">
        <route edges="9/16to9/15 9/15to9/16"/>
    </vehicle>
    <vehicle id="3206" depart="4.19" departLane="best" departSpeed="0.00" fromTaz="2" toTaz="3">
        <route edges="1/16to1/15 1/15to1/16"/>
    </vehicle>
    <vehicle id="8605" depart="4.22" departLane="best" departSpeed="0.00" fromTaz="99" toTaz="99">
        <route edges="2/16to1/16 1/16to16/16 16/16to15/16 15/16to14/16 14/16to14/15 14/15to15/15"/>
    </vehicle>
    <vehicle id="15813" depart="4.26" departLane="best" departSpeed="0.00" fromTaz="99" toTaz="99">
        <route edges="4/3to5/3 5/3to6/3 6/3to7/3 7/3to8/3 8/3to9/3 9/3to10/3 10/3to10/4 10/4to10/5 10/5to10/6 10/6to10/7 10/7to10/8 10/8to10/9 10/9to10/10 10/10to10/11 10/11to10/12 10/12to10/13 10/13to11/13 11/13to12/13 12/13to12/14"/>
    </vehicle>
    <vehicle id="11238" depart="4.28" departLane="best" departSpeed="0.00" fromTaz="99" toTaz="99">
        <route edges="6/6to7/6 7/6to8/6 8/6to9/6 9/6to10/6 10/6to10/5 10/5to10/4 10/4to10/3 10/3to10/2"/>
    </vehicle>
    <vehicle id="3714" depart="4.32" departLane="best" departSpeed="0.00" fromTaz="2" toTaz="3">
        <route edges="1/16to1/15 1/15to1/16"/>
    </vehicle>
    <vehicle id="6336" depart="4.38" departLane="best" departSpeed="0.00" fromTaz="4" toTaz="1">
        <route edges="13/16to13/15 13/15to13/16"/>
    </vehicle>
    <vehicle id="15916" depart="4.42" departLane="best" departSpeed="0.00" fromTaz="99" toTaz="99">
        <route edges="10/10to11/10 11/10to11/9 11/9to11/8 11/8to11/7 11/7to11/6 11/6to11/5 11/5to12/5 12/5to13/5 13/5to13/6"/>
    </vehicle>
    <vehicle id="14582" depart="4.46" departLane="best" departSpeed="0.00" fromTaz="99" toTaz="99">
        <route edges="3/2to3/3 3/3to3/4 3/4to3/5 3/5to3/6 3/6to3/7 3/7to3/8 3/8to3/9 3/9to3/10 3/10to3/11 3/11to3/12 3/12to3/13"/>
    </vehicle>
    <vehicle id="5646" depart="4.51" departLane="best" departSpeed="0.00" fromTaz="3" toTaz="2">
        <route edges="9/16to9/15 9/15to9/16"/>
    </vehicle>
    <vehicle id="4904" depart="4.69" departLane="best" departSpeed="0.00" fromTaz="3" toTaz="2">
        <route edges="9/16to9/15 9/15to9/16"/>
    </vehicle>
    <vehicle id="5602" depart="4.71" departLane="best" departSpeed="0.00" fromTaz="3" toTaz="2">
        <route edges="9/16to9/15 9/15to9/16"/>
    </vehicle>
    <vehicle id="14878" depart="4.73" departLane="best" departSpeed="0.00" fromTaz="99" toTaz="99">
        <route edges="9/6to10/6 10/6to11/6 11/6to12/6 12/6to13/6 13/6to14/6 14/6to15/6 15/6to16/6 16/6to1/6"/>
    </vehicle>
    <vehicle id="539" depart="4.77" departLane="best" departSpeed="0.00" fromTaz="1" toTaz="4">
        <route edges="5/16to5/15 5/15to5/16"/>
    </vehicle>
    <vehicle id="4040" depart="4.80" departLane="best" departSpeed="0.00" fromTaz="3" toTaz="2">
        <route edges="9/16to9/15 9/15to9/16"/>
    </vehicle>
    <vehicle id="14847" depart="4.83" departLane="best" departSpeed="0.00" fromTaz="99" toTaz="99">
        <route edges="11/14to11/15 11/15to12/15 12/15to13/15 13/15to14/15 14/15to15/15 15/15to16/15 16/15to1/15 1/15to1/14 1/14to1/13 1/13to1/12 1/12to1/11 1/11to1/10 1/10to2/10 2/10to3/10 3/10to3/9"/>
    </vehicle>
    <vehicle id="10208" depart="4.86" departLane="best" departSpeed="0.00" fromTaz="99" toTaz="99">
        <route edges="5/6to5/5 5/5to6/5 6/5to7/5 7/5to8/5 8/5to9/5 9/5to10/5 10/5to10/6 10/6to10/7 10/7to10/8 10/8to10/9 10/9to10/10 10/10to10/11 10/11to10/12"/>
    </vehicle>
    <vehicle id="9417" depart="4.89" departLane="best" departSpeed="0.00" fromTaz="99" toTaz="99">
        <route edges="13/2to12/2 12/2to12/3 12/3to12/4 12/4to12/5 12/5to12/6 12/6to12/7 12/7to13/7 13/7to14/7 14/7to15/7"/>
    </vehicle>
    <vehicle id="11494" depart="4.98" departLane="best" departSpeed="0.00" fromTaz="99" toTaz="99">
        <route edges="3/12to3/11 3/11to3/10 3/10to3/9 3/9to3/8 3/8to3/7 3/7to3/6 3/6to3/5 3/5to3/4 3/4to3/3"/>
    </vehicle>
    <vehicle id="4481" depart="5.03" departLane="best" departSpeed="0.00" fromTaz="3" toTaz="2">
        <route edges="9/16to9/15 9/15to9/16"/>
    </vehicle>
    <vehicle id="772" depart="5.27" departLane="best" departSpeed="0.00" fromTaz="1" toTaz="4">
        <route edges="5/16to5/15 5/15to5/16"/>
    </vehicle>
    <vehicle id="15379" depart="5.33" departLane="best" departSpeed="0.00" fromTaz="99" toTaz="99">
        <route edges="14/12to15/12 15/12to16/12 16/12to1/12 1/12to1/11 1/11to1/10 1/10to1/9 1/9to1/8 1/8to1/7 1/7to16/7"/>
    </vehicle>
    <vehicle id="2240" depart="5.34" departLane="best" departSpeed="0.00" fromTaz="2" toTaz="3">
        <route edges="1/16to1/15 1/15to1/16"/>
    </vehicle>
    <vehicle id="13404" depart="5.35" departLane="best" departSpeed="0.00" fromTaz="99" toTaz="99">
        <route edges="3/13to3/12 3/12to2/12 2/12to1/12 1/12to16/12 16/12to15/12 15/12to14/12 14/12to13/12 13/12to12/12 12/12to12/11 12/11to12/10 12/10to12/9 12/9to12/8 12/8to12/7 12/7to12/6 12/6to12/5 12/5to12/4 12/4to12/3 12/3to13/3"/>
    </vehicle>
    <vehicle id="15486" depart="5.52" departLane="best" departSpeed="0.00" fromTaz="99" toTaz="99">
        <route edges="4/11to4/12 4/12to3/12 3/12to2/12 2/12to1/12 1/12to16/12 16/12to15/12 15/12to14/12 14/12to14/11 14/11to14/10"/>
    </vehicle>
    <vehicle id="2894" depart="5.67" departLane="best" departSpeed="0.00" fromTaz="2" toTaz="3">
        <route edges="1/16to1/15 1/15to1/16"/>
    </vehicle>
    <vehicle id="12304" depart="5.83" departLane="best" departSpeed="0.00" fromTaz="99" toTaz="99">
        <route edges="3/3to3/2 3/2to2/2 2/2to1/2 1/2to1/3 1/3to1/4 1/4to1/5 1/5to1/6 1/6to1/7 1/7to1/8 1/8to1/9 1/9to1/10 1/10to1/11 1/11to1/12"/>
    </vehicle>
    <vehicle id="14985" depart="5.84" departLane="best" departSpeed="0.00" fromTaz="99" toTaz="99">
        <route edges="7/6to8/6 8/6to9/6 9/6to10/6 10/6to10/7 10/7to10/8 10/8to10/9 10/9to10/10 10/10to10/11 10/11to10/12 10/12to10/13 10/13to10/14 10/14to10/15 10/15to11/15 11/15to12/15 12/15to13/15 13/15to14/15 14/15to14/16"/>
    </vehicle>
    <vehicle id="11572" depart="5.93" departLane="best" departSpeed="0.00" fromTaz="99" toTaz="99">
        <route edges="15/2to15/3 15/3to15/4 15/4to15/5 15/5to15/6 15/6to15/7 15/7to15/8 15/8to15/9 15/9to15/10 15/10to15/11 15/11to15/12 15/12to15/13 15/13to15/14 15/14to16/14"/>
    </vehicle>
    <vehicle id="4374" depart="5.93" departLane="best" departSpeed="0.00" fromTaz="3" toTaz="2">
        <route edges="9/16to9/15 9/15to9/16"/>
    </vehicle>
    <vehicle id="10711" depart="5.97" departLane="best" departSpeed="0.00" fromTaz="99" toTaz="99">
        <route edges="13/8to13/7 13/7to14/7 14/7to15/7 15/7to16/7 16/7to1/7 1/7to1/6 1/6to1/5 1/5to1/4 1/4to1/3 1/3to1/2 1/2to1/1 1/1to2/1 2/1to3/1 3/1to4/1"/>
    </vehicle>
    <vehicle id="15823" depart="5.98" departLane="best" departSpeed="0.00" fromTaz="99" toTaz="99">
        <route edges="7/9to7/8 7/8to7/7 7/7to7/6 7/6to7/5 7/5to7/4 7/4to7/3 7/3to8/3"/>
    </vehicle>
    <vehicle id="13602" depart="6.00" departLane="best" departSpeed="0.00" fromTaz="99" toTaz="99">
        <route edges="10/14to11/14 11/14to12/14 12/14to13/14 13/14to14/14 14/14to15/14 15/14to16/14 16/14to1/14 1/14to1/13 1/13to1/12 1/12to1/11 1/11to1/10 1/10to1/9 1/9to1/8 1/8to1/7 1/7to1/6 1/6to1/5 1/5to1/4 1/4to2/4 2/4to3/4"/>
    </vehicle>
    <vehicle id="4705" depart="6.04" departLane="best" departSpeed="0.00" fromTaz="3" toTaz="2">
        <route edges="9/16to9/15 9/15to9/16"/>
    </vehicle>
    <vehicle id="15900" depart="6.23" departLane="best" departSpeed="0.00" fromTaz="99" toTaz="99">
        <route edges="5/15to5/14 5/14to5/13 5/13to5/12 5/12to5/11 5/11to5/10 5/10to5/9 5/9to5/8 5/8to5/7 5/7to5/6 5/6to5/5 5/5to5/4 5/4to6/4"/>
    </vehicle>
    <vehicle id="6532" depart="6.29" departLane="best" departSpeed="0.00" fromTaz="4" toTaz="1">
        <route edges="13/16to13/15 13/15to13/16"/>
    </vehicle>
    <vehicle id="1929" depart="6.35" departLane="best" departSpeed="0.00" fromTaz="1" toTaz="4">
        <route edges="5/16to5/15 5/15to5/16"/>
    </vehicle>
    <vehicle id="15772" depart="6.56" departLane="best" departSpeed="0.00" fromTaz="99" toTaz="99">
        <route edges="8/11to9/11 9/11to10/11 10/11to10/10 10/10to10/9 10/9to10/8 10/8to11/8 11/8to12/8 12/8to13/8 13/8to14/8 14/8to14/7"/>
    </vehicle>
    <vehicle id="12637" depart="6.61" departLane="best" departSpeed="0.00" fromTaz="99" toTaz="99">
        <route edges="12/1to13/1 13/1to13/2 13/2to13/3 13/3to13/4 13/4to13/5 13/5to13/6 13/6to13/7 13/7to13/8 13/8to13/9 13/9to13/10 13/10to13/11 13/11to13/12 13/12to13/13 13/13to13/14 13/14to13/15 13/15to13/16 13/16to14/16"/>
    </vehicle>
    <vehicle id="6209" depart="6.68" departLane="best" departSpeed="0.00" fromTaz="4" toTaz="1">
        <route edges="13/16to13/15 13/15to13/16"/>
    </vehicle>
    <vehicle id="942" depart="6.74" departLane="best" departSpeed="0.00" fromTaz="1" toTaz="4">
        <route edges="5/16to5/15 5/15to5/16"/>
    </vehicle>
    <vehicle id="9371" depart="7.04" departLane="best" departSpeed="0.00" fromTaz="99" toTaz="99">
        <route edges="13/7to13/8 13/8to14/8 14/8to15/8 15/8to16/8 16/8to1/8 1/8to1/7 1/7to1/6 1/6to1/5 1/5to1/4 1/4to1/3 1/3to1/2 1/2to1/1 1/1to2/1 2/1to3/1 3/1to4/1 4/1to5/1"/>
    </vehicle>
    <vehicle id="5256" depart="7.11" departLane="best" departSpeed="0.00" fromTaz="3" toTaz="2">
        <route edges="9/16to9/15 9/15to9/16"/>
    </vehicle>
    <vehicle id="4914" depart="7.22" departLane="best" departSpeed="0.00" fromTaz="3" toTaz="2">
        <route edges="9/16to9/15 9/15to9/16"/>
    </vehicle>
    <vehicle id="8186" depart="7.28" departLane="best" departSpeed="0.00" fromTaz="99" toTaz="99">
        <route edges="12/15to11/15 11/15to10/15 10/15to9/15 9/15to8/15 8/15to8/14 8/14to8/13"/>
    </vehicle>
    <vehicle id="559" depart="7.29" departLane="best" departSpeed="0.00" fromTaz="1" toTaz="4">
        <route edges="5/16to5/15 5/15to5/16"/>
    </vehicle>
    <vehicle id="2794" depart="7.37" departLane="best" departSpeed="0.00" fromTaz="2" toTaz="3">
        <route edges="1/16to1/15 1/15to1/16"/>
    </vehicle>
    <vehicle id="8979" depart="7.48" departLane="best" departSpeed="0.00" fromTaz="99" toTaz="99">
        <route edges="1/1to16/1 16/1to15/1 15/1to14/1 14/1to13/1 13/1to12/1 12/1to11/1 11/1to11/2 11/2to11/3 11/3to11/4 11/4to12/4"/>
    </vehicle>
    <vehicle id="12602" depart="7.57" departLane="best" departSpeed="0.00" fromTaz="99" toTaz="99">
        <route edges="12/3to12/2 12/2to11/2 11/2to11/3 11/3to11/4 11/4to11/5 11/5to11/6 11/6to11/7 11/7to11/8 11/8to11/9"/>
    </vehicle>
    <vehicle id="14916" depart="7.59" departLane="best" departSpeed="0.00" fromTaz="99" toTaz="99">
        <route edges="13/4to12/4 12/4to11/4 11/4to10/4 10/4to9/4 9/4to8/4 8/4to7/4 7/4to6/4 6/4to6/5 6/5to6/6 6/6to6/7 6/7to6/8 6/8to6/9"/>
    </vehicle>
    <vehicle id="14228" depart="7.64" departLane="best" departSpeed="0.00" fromTaz="99" toTaz="99">
        <route edges="15/11to15/12 15/12to16/12 16/12to1/12 1/12to2/12 2/12to3/12 3/12to4/12 4/12to5/12 5/12to6/12 6/12to6/13"/>
    </vehicle>
    <vehicle id="2934" depart="7.67" departLane="best" departSpeed="0.00" fromTaz="2" toTaz="3">
        <route edges="1/16to1/15 1/15to1/16"/>
    </vehicle>
    <vehicle id="8995" depart="7.73" departLane="best" departSpeed="0.00" fromTaz="99" toTaz="99">
        <route edges="9/4to9/5 9/5to10/5 10/5to10/6 10/6to10/7 10/7to10/8 10/8to11/8 11/8to12/8 12/8to13/8 13/8to14/8"/>
    </vehicle>
    <vehicle id="10154" depart="7.77" departLane="best" departSpeed="0.00" fromTaz="99" toTaz="99">
        <route edges="2/9to1/9 1/9to16/9 16/9to15/9 15/9to14/9 14/9to13/9 13/9to12/9 12/9to11/9 11/9to11/8 11/8to11/7 11/7to11/6 11/6to11/5 11/5to11/4 11/4to12/4"/>
    </vehicle>
    <vehicle id="9756" depart="7.84" departLane="best" departSpeed="0.00" fromTaz="99" toTaz="99">
        <route edges="11/15to10/15 10/15to9/15 9/15to8/15 8/15to7/15 7/15to6/15 6/15to5/15 5/15to4/15 4/15to3/15 3/15to3/14 3/14to3/13 3/13to3/12 3/12to3/11 3/11to3/10 3/10to3/9 3/9to3/8"/>
    </vehicle>
    <vehicle id="4591" depart="7.93" departLane="best" departSpeed="0.00" fromTaz="3" toTaz="2">
        <route edges="9/16to9/15 9/15to9/16"/>
    </vehicle>
    <vehicle id="3907" depart="7.99" departLane="best" departSpeed="0.00" fromTaz="2" toTaz="3">
        <route edges="1/16to1/15 1/15to1/16"/>
    </vehicle>
    <vehicle id="11654" depart="7.99" departLane="best" departSpeed="0.00" fromTaz="99" toTaz="99">
        <route edges="8/4to8/5 8/5to9/5 9/5to10/5 10/5to10/6 10/6to10/7 10/7to10/8 10/8to10/9 10/9to10/10 10/10to10/11 10/11to10/12 10/12to10/13 10/13to10/14 10/14to11/14"/>
    </vehicle>
    <vehicle id="2446" depart="8.03" departLane="best" departSpeed="0.00" fromTaz="2" toTaz="3">
        <route edges="1/16to1/15 1/15to1/16"/>
    </vehicle>
    <vehicle id="14801" depart="8.21" departLane="best" departSpeed="0.00" fromTaz="99" toTaz="99">
        <route edges="7/2to7/3 7/3to6/3 6/3to6/4 6/4to6/5 6/5to6/6 6/6to6/7 6/7to6/8 6/8to6/9 6/9to6/10 6/10to6/11 6/11to6/12 6/12to6/13 6/13to6/14 6/14to6/15 6/15to6/16 6/16to7/16"/>
    </vehicle>
    <vehicle id="1711" depart="8.39" departLane="best" departSpeed="0.00" fromTaz="1" toTaz="4">
        <route edges="5/16to5/15 5/15to5/16"/>
    </vehicle>
    <vehicle id="12287" depart="8.46" departLane="best" departSpeed="0.00" fromTaz="99" toTaz="99">
        <route edges="5/10to5/9 5/9to6/9 6/9to7/9 7/9to8/9 8/9to9/9 9/9to10/9 10/9to10/8 10/8to10/7"/>
    </vehicle>
    <vehicle id="4224" depart="8.54" departLane="best" departSpeed="0.00" fromTaz="3" toTaz="2">
        <route edges="9/16to9/15 9/15to9/16"/>
    </vehicle>
    <vehicle id="13796" depart="8.59" departLane="best" departSpeed="0.00" fromTaz="99" toTaz="99">
        <route edges="5/7to4/7 4/7to3/7 3/7to3/6 3/6to3/5 3/5to3/4 3/4to3/3 3/3to3/2 3/2to3/1 3/1to4/1"/>
    </vehicle>