<?xml version="1.0" encoding="UTF-8"?>

<!-- generated on Sun Feb  5 11:08:16 2017 by SUMO netconvert Version 0.27.1
<?xml version="1.0" encoding="UTF-8"?>

<configuration xmlns:xsi="http://www.w3.org/2001/XMLSchema-instance" xsi:noNamespaceSchemaLocation="http://sumo.dlr.de/xsd/netconvertConfiguration.xsd">

    <input>
        <type-files value="netconvert.osm.types.xml"/>
        <osm-files value="../osm/madrid_las_tablas.osm"/>
    </input>

    <output>
        <output-file value="madrid_las_tablas.net.xml"/>
        <plain-output-prefix value="madrid_las_tablas"/>
        <output.street-names value="true"/>
        <output.original-names value="true"/>
    </output>

    <projection>
        <proj.utm value="true"/>
        <proj.plain-geo value="true"/>
    </projection>

    <edge_removal>
        <remove-edges.by-type value="highway.bridleway,highway.cycleway,highway.footway,highway.ford,highway.path,highway.pedestrian,highway.service,highway.stairs,highway.step,highway.steps,highway.track,railway.light_rail,railway.preserved,railway.rail,railway.subway,railway.tram"/>
    </edge_removal>

</configuration>
-->

<connections version="0.27" xmlns:xsi="http://www.w3.org/2001/XMLSchema-instance" xsi:noNamespaceSchemaLocation="http://sumo.dlr.de/xsd/connections_file.xsd">
    <connection from="-100682788" to="23572221" fromLane="0" toLane="0"/>
    <connection from="-100682788" to="100682788" fromLane="0" toLane="0"/>

    <connection from="-101233479" to="-220958541" fromLane="0" toLane="0"/>
    <connection from="-101233479" to="220958549#0" fromLane="0" toLane="0"/>
    <connection from="-101233479" to="101233479" fromLane="0" toLane="0"/>

    <connection from="-103630528" to="103630528" fromLane="0" toLane="0"/>

    <connection from="-188234548#0" to="28262963" fromLane="0" toLane="0"/>
    <connection from="-188234548#0" to="188234548#0" fromLane="0" toLane="0"/>

    <connection from="-188234548#1" to="28510466" fromLane="0" toLane="0"/>
    <connection from="-188234548#1" to="-188234548#0" fromLane="0" toLane="0"/>
    <connection from="-188234548#1" to="188234548#1" fromLane="0" toLane="0"/>

    <connection from="-188234548#2" to="-188234548#1" fromLane="0" toLane="0"/>
    <connection from="-188234548#2" to="-324330499" fromLane="0" toLane="0"/>
    <connection from="-188234548#2" to="188234548#2" fromLane="0" toLane="0"/>

    <connection from="-193664785" to="28039419#0" fromLane="0" toLane="0"/>
    <connection from="-193664785" to="23802690#0" fromLane="0" toLane="0"/>

    <connection from="-198862601" to="198862601" fromLane="0" toLane="0"/>

    <connection from="-20616415" to="243040740" fromLane="0" toLane="0"/>
    <connection from="-20616415" to="20616415" fromLane="0" toLane="0"/>

    <connection from="-215446160#0" to="243040743#0" fromLane="0" toLane="0"/>
    <connection from="-215446160#0" to="215446160#0" fromLane="0" toLane="0"/>

    <connection from="-215446160#1" to="215446159" fromLane="0" toLane="0"/>
    <connection from="-215446160#1" to="-215446160#0" fromLane="0" toLane="0"/>
    <connection from="-215446160#1" to="215446160#1" fromLane="0" toLane="0"/>

    <connection from="-215446160#2" to="-215446160#1" fromLane="0" toLane="0"/>
    <connection from="-215446160#2" to="215446160#2" fromLane="0" toLane="0"/>

    <connection from="-220958541" to="27330500" fromLane="0" toLane="0"/>
    <connection from="-220958541" to="-27330490#1" fromLane="0" toLane="0"/>
    <connection from="-220958541" to="220958541" fromLane="0" toLane="0"/>

    <connection from="-220958549#0" to="101233479" fromLane="0" toLane="0"/>
    <connection from="-220958549#0" to="-220958541" fromLane="0" toLane="0"/>
    <connection from="-220958549#0" to="220958549#0" fromLane="0" toLane="0"/>

    <connection from="-220958549#1" to="-220958549#0" fromLane="0" toLane="0"/>
    <connection from="-220958549#1" to="27330492" fromLane="0" toLane="0"/>
    <connection from="-220958549#1" to="220958549#1" fromLane="0" toLane="0"/>

    <connection from="-220958549#2" to="-220958549#1" fromLane="0" toLane="0"/>
    <connection from="-220958549#2" to="27330490#0" fromLane="0" toLane="0"/>
    <connection from="-220958549#2" to="220958549#2" fromLane="0" toLane="0"/>

    <connection from="-220958549#3" to="-220958549#2" fromLane="0" toLane="0"/>
    <connection from="-220958549#3" to="220958549#3" fromLane="0" toLane="0"/>

    <connection from="-220958549#4" to="25995141#0" fromLane="0" toLane="0"/>
    <connection from="-220958549#4" to="-220958549#3" fromLane="0" toLane="0"/>
    <connection from="-220958549#4" to="220958549#4" fromLane="0" toLane="0"/>

    <connection from="-220958549#5" to="258339606" fromLane="0" toLane="0"/>
    <connection from="-220958549#5" to="-220958549#4" fromLane="0" toLane="0"/>
    <connection from="-220958549#5" to="220958549#5" fromLane="0" toLane="0"/>

    <connection from="-220958549#6" to="-220958549#5" fromLane="0" toLane="0"/>
    <connection from="-220958549#6" to="220958549#6" fromLane="0" toLane="0"/>

    <connection from="-22278675" to="242254197" fromLane="0" toLane="0"/>
    <connection from="-22278675" to="22278675" fromLane="0" toLane="0"/>

    <connection from="-23502729" to="24260364" fromLane="0" toLane="0"/>
    <connection from="-23502729" to="23502729" fromLane="0" toLane="0"/>

    <connection from="-23551883#0" to="23551877#4" fromLane="0" toLane="0"/>
    <connection from="-23551883#0" to="23551883#0" fromLane="0" toLane="0"/>

    <connection from="-23551883#1" to="-23569944" fromLane="0" toLane="0"/>
    <connection from="-23551883#1" to="-23551883#0" fromLane="0" toLane="0"/>
    <connection from="-23551883#1" to="23551883#1" fromLane="0" toLane="0"/>

    <connection from="-23551884#0" to="-32873314#1" fromLane="0" toLane="0"/>
    <connection from="-23551884#0" to="23551884#0" fromLane="0" toLane="0"/>

    <connection from="-23551884#1" to="-23551884#0" fromLane="0" toLane="0"/>
    <connection from="-23551884#1" to="23551884#1" fromLane="0" toLane="0"/>

    <connection from="-23551884#2" to="-23551884#1" fromLane="0" toLane="0"/>
    <connection from="-23551884#2" to="23551884#2" fromLane="0" toLane="0"/>

    <connection from="-23551884#3" to="-23551884#2" fromLane="0" toLane="0"/>
    <connection from="-23551884#3" to="23551884#3" fromLane="0" toLane="0"/>

    <connection from="-23551886" to="-31778225#0" fromLane="0" toLane="0"/>
    <connection from="-23551886" to="31778225#1" fromLane="0" toLane="0"/>
    <connection from="-23551886" to="23551886" fromLane="0" toLane="0"/>

    <connection from="-23568752#0" to="23568566#3" fromLane="0" toLane="0"/>
    <connection from="-23568752#0" to="23568752#0" fromLane="0" toLane="0"/>

    <connection from="-23568752#1" to="-23568752#0" fromLane="0" toLane="0"/>
    <connection from="-23568752#1" to="23568752#1" fromLane="0" toLane="0"/>

    <connection from="-23569651" to="23569642#4" fromLane="0" toLane="0"/>
    <connection from="-23569651" to="23569651" fromLane="0" toLane="0"/>

    <connection from="-23569655" to="-31778225#1" fromLane="0" toLane="0"/>
    <connection from="-23569655" to="31778225#2" fromLane="0" toLane="0"/>
    <connection from="-23569655" to="23569655" fromLane="0" toLane="0"/>

    <connection from="-23569686" to="23569674#1" fromLane="0" toLane="0"/>
    <connection from="-23569686" to="23569686" fromLane="0" toLane="0"/>

    <connection from="-23569688" to="23569674#3" fromLane="0" toLane="0"/>
    <connection from="-23569688" to="23569688" fromLane="0" toLane="0"/>

    <connection from="-23569730" to="23568566#6" fromLane="0" toLane="0"/>
    <connection from="-23569730" to="23569730" fromLane="0" toLane="0"/>

    <connection from="-23569944" to="23568566#7" fromLane="0" toLane="0"/>
    <connection from="-23569944" to="23569944" fromLane="0" toLane="0"/>

    <connection from="-23569963#0" to="23568566#2" fromLane="0" toLane="0"/>
    <connection from="-23569963#0" to="23569963#0" fromLane="0" toLane="0"/>

    <connection from="-23569963#1" to="-23569963#0" fromLane="0" toLane="0"/>
    <connection from="-23569963#1" to="23569963#1" fromLane="0" toLane="0"/>

    <connection from="-23569963#2" to="-23569963#1" fromLane="0" toLane="0"/>
    <connection from="-23569963#2" to="23569963#2" fromLane="0" toLane="0"/>

    <connection from="-23570103#0" to="27882348" fromLane="0" toLane="0"/>
    <connection from="-23570103#0" to="365965542" fromLane="0" toLane="0"/>
    <connection from="-23570103#0" to="23570103#0" fromLane="0" toLane="0"/>

    <connection from="-23570103#1" to="23570228#1" fromLane="0" toLane="0"/>
    <connection from="-23570103#1" to="-23570103#0" fromLane="0" toLane="0"/>
    <connection from="-23570103#1" to="-23570228#0" fromLane="0" toLane="0"/>
    <connection from="-23570103#1" to="23570103#1" fromLane="0" toLane="0"/>

    <connection from="-23570193" to="-31778225#7" fromLane="0" toLane="0"/>
    <connection from="-23570193" to="23570193" fromLane="0" toLane="0"/>

    <connection from="-23570208" to="365965539#1" fromLane="0" toLane="0"/>
    <connection from="-23570208" to="23570208" fromLane="0" toLane="0"/>

    <connection from="-23570218#0" to="23570187#2" fromLane="0" toLane="0"/>
    <connection from="-23570218#0" to="23570218#0" fromLane="0" toLane="0"/>

    <connection from="-23570218#1" to="-23570218#0" fromLane="0" toLane="0"/>
    <connection from="-23570218#1" to="32038120#1" fromLane="0" toLane="1"/>
    <connection from="-23570218#1" to="23570218#1" fromLane="0" toLane="0"/>

    <connection from="-23570228#0" to="23569674#2" fromLane="0" toLane="0"/>
    <connection from="-23570228#0" to="23570228#0" fromLane="0" toLane="0"/>

    <connection from="-23570228#1" to="-23570103#0" fromLane="0" toLane="0"/>
    <connection from="-23570228#1" to="-23570228#0" fromLane="0" toLane="0"/>
    <connection from="-23570228#1" to="23570103#1" fromLane="0" toLane="0"/>
    <connection from="-23570228#1" to="23570228#1" fromLane="0" toLane="0"/>

    <connection from="-23570228#2" to="23570236#1" fromLane="0" toLane="0"/>
    <connection from="-23570228#2" to="-23570228#1" fromLane="0" toLane="0"/>
    <connection from="-23570228#2" to="23570228#2" fromLane="0" toLane="0"/>

    <connection from="-23570763#0" to="23570750#3" fromLane="0" toLane="0"/>
    <connection from="-23570763#0" to="23570763#0" fromLane="0" toLane="0"/>

    <connection from="-23570763#1" to="-23570763#0" fromLane="0" toLane="0"/>
    <connection from="-23570763#1" to="23570763#1" fromLane="0" toLane="0"/>

    <connection from="-23570763#2" to="-23570763#1" fromLane="0" toLane="0"/>
    <connection from="-23570763#2" to="23570763#2" fromLane="0" toLane="0"/>

    <connection from="-23570763#3" to="-23570763#2" fromLane="0" toLane="0"/>
    <connection from="-23570763#3" to="23570763#3" fromLane="0" toLane="0"/>

    <connection from="-23570799#0" to="243040723#1" fromLane="0" toLane="0"/>
    <connection from="-23570799#0" to="-243040723#0" fromLane="0" toLane="0"/>
    <connection from="-23570799#0" to="23570799#0" fromLane="0" toLane="0"/>

    <connection from="-23570799#1" to="23695586#6" fromLane="0" toLane="0"/>
    <connection from="-23570799#1" to="-23570799#0" fromLane="0" toLane="0"/>
    <connection from="-23570799#1" to="-23695586#5" fromLane="0" toLane="0"/>
    <connection from="-23570799#1" to="23570799#1" fromLane="0" toLane="0"/>

    <connection from="-23570800#0" to="243040723#2" fromLane="0" toLane="0"/>
    <connection from="-23570800#0" to="-243040723#1" fromLane="0" toLane="0"/>
    <connection from="-23570800#0" to="23570800#0" fromLane="0" toLane="0"/>

    <connection from="-23570800#1" to="23695586#7" fromLane="0" toLane="0"/>
    <connection from="-23570800#1" to="-23570800#0" fromLane="0" toLane="0"/>
    <connection from="-23570800#1" to="-23695586#6" fromLane="0" toLane="0"/>
    <connection from="-23570800#1" to="23570800#1" fromLane="0" toLane="0"/>

    <connection from="-23572294#0" to="365965545" fromLane="0" toLane="0"/>
    <connection from="-23572294#0" to="453471144" fromLane="0" toLane="0"/>
    <connection from="-23572294#0" to="23572294#0" fromLane="0" toLane="0"/>

    <connection from="-23572294#1" to="-23572294#0" fromLane="0" toLane="0"/>
    <connection from="-23572294#1" to="-453955195#1" fromLane="0" toLane="0"/>
    <connection from="-23572294#1" to="23572294#1" fromLane="0" toLane="0"/>

    <connection from="-23572294#2" to="-23572294#1" fromLane="0" toLane="0"/>
    <connection from="-23572294#2" to="-23819685" fromLane="0" toLane="0"/>
    <connection from="-23572294#2" to="23572294#2" fromLane="0" toLane="0"/>

    <connection from="-23590637#0" to="243040716" fromLane="0" toLane="0"/>
    <connection from="-23590637#0" to="23590637#0" fromLane="0" toLane="0"/>

    <connection from="-23590637#1" to="-23590637#0" fromLane="0" toLane="0"/>
    <connection from="-23590637#1" to="23590637#1" fromLane="0" toLane="0"/>

    <connection from="-23590694" to="23590688#1" fromLane="0" toLane="0"/>
    <connection from="-23590694" to="23590694" fromLane="0" toLane="0"/>

    <connection from="-23628728#0" to="361775197#0" fromLane="0" toLane="0"/>
    <connection from="-23628728#0" to="-45340188" fromLane="0" toLane="0"/>
    <connection from="-23628728#0" to="23628728#0" fromLane="0" toLane="0"/>

    <connection from="-23628728#1" to="-23628728#0" fromLane="0" toLane="0"/>
    <connection from="-23628728#1" to="23628728#1" fromLane="0" toLane="0"/>

    <connection from="-23628728#2" to="-23628728#1" fromLane="0" toLane="0"/>
    <connection from="-23628728#2" to="23802696#0" fromLane="0" toLane="0"/>
    <connection from="-23628728#2" to="23628728#2" fromLane="0" toLane="0"/>

    <connection from="-23681466" to="-350046860#1" fromLane="0" toLane="0"/>
    <connection from="-23681466" to="-24228800#2" fromLane="0" toLane="0"/>
    <connection from="-23681466" to="23681466" fromLane="0" toLane="0"/>

    <connection from="-23681482#0" to="23569674#4" fromLane="0" toLane="0"/>
    <connection from="-23681482#0" to="23681482#0" fromLane="0" toLane="0"/>

    <connection from="-23681482#1" to="-23681482#0" fromLane="0" toLane="0"/>
    <connection from="-23681482#1" to="23628792#1" fromLane="0" toLane="0"/>
    <connection from="-23681482#1" to="23681482#1" fromLane="0" toLane="0"/>

    <connection from="-23681482#2" to="350046863#10" fromLane="0" toLane="0"/>
    <connection from="-23681482#2" to="-23681482#1" fromLane="0" toLane="0"/>
    <connection from="-23681482#2" to="23681482#2" fromLane="0" toLane="0"/>

    <connection from="-23689459#0" to="23689454#1" fromLane="0" toLane="0"/>
    <connection from="-23689459#0" to="23689459#0" fromLane="0" toLane="0"/>

    <connection from="-23689459#1" to="-23689459#0" fromLane="0" toLane="0"/>
    <connection from="-23689459#1" to="23689459#1" fromLane="0" toLane="0"/>

    <connection from="-23689459#2" to="90282234#0" fromLane="0" toLane="0"/>
    <connection from="-23689459#2" to="-23689459#1" fromLane="0" toLane="0"/>
    <connection from="-23689459#2" to="23689459#2" fromLane="0" toLane="0"/>

    <connection from="-23689459#3" to="-23689459#2" fromLane="0" toLane="0"/>
    <connection from="-23689459#3" to="-23785391" fromLane="0" toLane="0"/>
    <connection from="-23689459#3" to="23689459#3" fromLane="0" toLane="0"/>

    <connection from="-23689459#4" to="-23689459#3" fromLane="0" toLane="0"/>
    <connection from="-23689459#4" to="23818110" fromLane="0" toLane="0"/>
    <connection from="-23689459#4" to="23689459#4" fromLane="0" toLane="0"/>

    <connection from="-23689459#5" to="-23689459#4" fromLane="0" toLane="0"/>
    <connection from="-23689459#5" to="23818185" fromLane="0" toLane="0"/>
    <connection from="-23689459#5" to="23689459#5" fromLane="0" toLane="0"/>

    <connection from="-23689552#0" to="23689372#0" fromLane="0" toLane="0"/>
    <connection from="-23689552#0" to="23689552#0" fromLane="0" toLane="0"/>

    <connection from="-23689552#1" to="-23689552#0" fromLane="0" toLane="0"/>
    <connection from="-23689552#1" to="23689552#1" fromLane="0" toLane="0"/>

    <connection from="-23695586#0" to="32038116#4" fromLane="0" toLane="0"/>
    <connection from="-23695586#0" to="23695586#0" fromLane="0" toLane="0"/>

    <connection from="-23695586#1" to="32113739#1" fromLane="0" toLane="0"/>
    <connection from="-23695586#1" to="-23695586#0" fromLane="0" toLane="0"/>
    <connection from="-23695586#1" to="23695586#1" fromLane="0" toLane="0"/>

    <connection from="-23695586#2" to="23947367#1" fromLane="0" toLane="0"/>
    <connection from="-23695586#2" to="-23695586#1" fromLane="0" toLane="0"/>
    <connection from="-23695586#2" to="-23947367#0" fromLane="0" toLane="0"/>
    <connection from="-23695586#2" to="23695586#2" fromLane="0" toLane="0"/>

    <connection from="-23695586#3" to="-23695586#2" fromLane="0" toLane="0"/>
    <connection from="-23695586#3" to="23695586#3" fromLane="0" toLane="0"/>

    <connection from="-23695586#4" to="-23695586#3" fromLane="0" toLane="0"/>
    <connection from="-23695586#4" to="243040739#3" fromLane="0" toLane="0"/>
    <connection from="-23695586#4" to="23695586#4" fromLane="0" toLane="0"/>

    <connection from="-23695586#5" to="365965547#2" fromLane="0" toLane="0"/>
    <connection from="-23695586#5" to="-23695586#4" fromLane="0" toLane="0"/>
    <connection from="-23695586#5" to="23695586#5" fromLane="0" toLane="0"/>

    <connection from="-23695586#6" to="-23570799#0" fromLane="0" toLane="0"/>
    <connection from="-23695586#6" to="-23695586#5" fromLane="0" toLane="0"/>
    <connection from="-23695586#6" to="23570799#1" fromLane="0" toLane="0"/>
    <connection from="-23695586#6" to="23695586#6" fromLane="0" toLane="0"/>

    <connection from="-23695586#7" to="-23570800#0" fromLane="0" toLane="0"/>
    <connection from="-23695586#7" to="-23695586#6" fromLane="0" toLane="0"/>
    <connection from="-23695586#7" to="23570800#1" fromLane="0" toLane="0"/>
    <connection from="-23695586#7" to="23695586#7" fromLane="0" toLane="0"/>

    <connection from="-23695586#8" to="-23695586#7" fromLane="0" toLane="0"/>
    <connection from="-23695586#8" to="454571999" fromLane="0" toLane="0"/>
    <connection from="-23695586#8" to="23695586#8" fromLane="0" toLane="0"/>

    <connection from="-23785391" to="403906247#1" fromLane="0" toLane="0"/>
    <connection from="-23785391" to="23785391" fromLane="0" toLane="0"/>

    <connection from="-23785401" to="23785399#1" fromLane="0" toLane="0"/>
    <connection from="-23785401" to="23785401" fromLane="0" toLane="0"/>

    <connection from="-23785404" to="23785399#2" fromLane="0" toLane="0"/>
    <connection from="-23785404" to="23785404" fromLane="0" toLane="0"/>

    <connection from="-23785440" to="365787231#4" fromLane="0" toLane="0"/>
    <connection from="-23785440" to="23785440" fromLane="0" toLane="0"/>

    <connection from="-23785464#0" to="23785470#4" fromLane="0" toLane="0"/>
    <connection from="-23785464#0" to="23785464#0" fromLane="0" toLane="0"/>

    <connection from="-23785464#1" to="-23785464#0" fromLane="0" toLane="0"/>
    <connection from="-23785464#1" to="23785464#1" fromLane="0" toLane="0"/>

    <connection from="-23785464#2" to="-23785464#1" fromLane="0" toLane="0"/>
    <connection from="-23785464#2" to="23785464#2" fromLane="0" toLane="0"/>

    <connection from="-23785472" to="23785470#3" fromLane="0" toLane="0"/>
    <connection from="-23785472" to="23785472" fromLane="0" toLane="0"/>

    <connection from="-23785475#0" to="365965546#2" fromLane="0" toLane="0"/>
    <connection from="-23785475#0" to="23785475#0" fromLane="0" toLane="0"/>

    <connection from="-23785475#1" to="-24228720#5" fromLane="0" toLane="0"/>
    <connection from="-23785475#1" to="-23785475#0" fromLane="0" toLane="0"/>
    <connection from="-23785475#1" to="24228720#6" fromLane="0" toLane="0"/>
    <connection from="-23785475#1" to="23785475#1" fromLane="0" toLane="0"/>

    <connection from="-23785477#0" to="365965546#3" fromLane="0" toLane="0"/>
    <connection from="-23785477#0" to="23785477#0" fromLane="0" toLane="0"/>

    <connection from="-23785477#1" to="-24228720#4" fromLane="0" toLane="0"/>
    <connection from="-23785477#1" to="-23785477#0" fromLane="0" toLane="0"/>
    <connection from="-23785477#1" to="24228720#5" fromLane="0" toLane="0"/>
    <connection from="-23785477#1" to="23785477#1" fromLane="0" toLane="0"/>

    <connection from="-23785487#0" to="361775197#9" fromLane="0" toLane="0"/>
    <connection from="-23785487#0" to="23785487#0" fromLane="1" toLane="1"/>

    <connection from="-23785487#1" to="-23785487#0" fromLane="0" toLane="0"/>
    <connection from="-23785487#1" to="-23785487#0" fromLane="1" toLane="1"/>
    <connection from="-23785487#1" to="23785487#1" fromLane="1" toLane="1"/>

    <connection from="-23785487#2" to="-23785487#1" fromLane="0" toLane="0"/>
    <connection from="-23785487#2" to="-23785487#1" fromLane="1" toLane="1"/>
    <connection from="-23785487#2" to="23689516#1" fromLane="1" toLane="0"/>
    <connection from="-23785487#2" to="23785487#2" fromLane="1" toLane="1"/>

    <connection from="-23785487#3" to="23689517#1" fromLane="0" toLane="0"/>
    <connection from="-23785487#3" to="-23785487#2" fromLane="0" toLane="0"/>
    <connection from="-23785487#3" to="-23785487#2" fromLane="1" toLane="1"/>
    <connection from="-23785487#3" to="23785487#3" fromLane="1" toLane="1"/>

    <connection from="-23785487#4" to="-23785401" fromLane="0" toLane="0"/>
    <connection from="-23785487#4" to="-23785487#3" fromLane="0" toLane="0"/>
    <connection from="-23785487#4" to="-23785487#3" fromLane="1" toLane="1"/>
    <connection from="-23785487#4" to="23785487#4" fromLane="1" toLane="1"/>

    <connection from="-23785487#5" to="-23785404" fromLane="0" toLane="0"/>
    <connection from="-23785487#5" to="-23785487#4" fromLane="0" toLane="0"/>
    <connection from="-23785487#5" to="-23785487#4" fromLane="1" toLane="1"/>
    <connection from="-23785487#5" to="23785487#5" fromLane="1" toLane="1"/>

    <connection from="-23785487#6" to="-23785487#5" fromLane="0" toLane="0"/>
    <connection from="-23785487#6" to="-23785487#5" fromLane="1" toLane="1"/>
    <connection from="-23785487#6" to="358227398#0" fromLane="1" toLane="3"/>
    <connection from="-23785487#6" to="23785487#6" fromLane="1" toLane="1"/>

    <connection from="-23785487#7" to="358227397" fromLane="0" toLane="0"/>
    <connection from="-23785487#7" to="-23785487#6" fromLane="0" toLane="0"/>
    <connection from="-23785487#7" to="-23785487#6" fromLane="1" toLane="1"/>
    <connection from="-23785487#7" to="23785487#7" fromLane="1" toLane="1"/>

    <connection from="-23785499#0" to="23841670#2" fromLane="0" toLane="0"/>
    <connection from="-23785499#0" to="-23841670#1" fromLane="0" toLane="1"/>
    <connection from="-23785499#0" to="23785499#0" fromLane="0" toLane="0"/>

    <connection from="-23785499#1" to="-261926528#0" fromLane="0" toLane="0"/>
    <connection from="-23785499#1" to="-23785499#0" fromLane="0" toLane="0"/>
    <connection from="-23785499#1" to="261926528#1" fromLane="0" toLane="0"/>
    <connection from="-23785499#1" to="23785499#1" fromLane="0" toLane="0"/>

    <connection from="-23785500" to="23841670#1" fromLane="0" toLane="0"/>
    <connection from="-23785500" to="-23841670#0" fromLane="0" toLane="1"/>
    <connection from="-23785500" to="23785500" fromLane="0" toLane="0"/>

    <connection from="-23785502#0" to="23785502#0" fromLane="0" toLane="0"/>

    <connection from="-23785502#1" to="-24228720#0" fromLane="0" toLane="0"/>
    <connection from="-23785502#1" to="-23785502#0" fromLane="0" toLane="0"/>
    <connection from="-23785502#1" to="24228720#1" fromLane="0" toLane="0"/>
    <connection from="-23785502#1" to="23785502#1" fromLane="0" toLane="0"/>

    <connection from="-23802586#0" to="23802565#1" fromLane="0" toLane="0"/>
    <connection from="-23802586#0" to="23802586#0" fromLane="0" toLane="0"/>

    <connection from="-23802586#1" to="-23802586#0" fromLane="0" toLane="0"/>
    <connection from="-23802586#1" to="23802586#1" fromLane="0" toLane="0"/>

    <connection from="-23802586#2" to="-23802586#1" fromLane="0" toLane="0"/>
    <connection from="-23802586#2" to="23802586#2" fromLane="0" toLane="0"/>

    <connection from="-23802588#0" to="23802565#2" fromLane="0" toLane="0"/>
    <connection from="-23802588#0" to="23802588#0" fromLane="0" toLane="0"/>

    <connection from="-23802588#1" to="-23802588#0" fromLane="0" toLane="0"/>
    <connection from="-23802588#1" to="23802588#1" fromLane="0" toLane="0"/>

    <connection from="-23802588#2" to="-23802588#1" fromLane="0" toLane="0"/>
    <connection from="-23802588#2" to="23802588#2" fromLane="0" toLane="0"/>

    <connection from="-23818110" to="23689459#4" fromLane="0" toLane="0"/>
    <connection from="-23818110" to="-23689459#3" fromLane="0" toLane="0"/>
    <connection from="-23818110" to="23818110" fromLane="0" toLane="0"/>

    <connection from="-23818185" to="23689459#5" fromLane="0" toLane="0"/>
    <connection from="-23818185" to="-23689459#4" fromLane="0" toLane="0"/>
    <connection from="-23818185" to="23818185" fromLane="0" toLane="0"/>

    <connection from="-23818206" to="358228120#1" fromLane="0" toLane="0"/>
    <connection from="-23818206" to="-358228120#0" fromLane="0" toLane="0"/>
    <connection from="-23818206" to="23818206" fromLane="0" toLane="0"/>

    <connection from="-23818221#0" to="365787231#5" fromLane="0" toLane="0"/>
    <connection from="-23818221#0" to="23818221#0" fromLane="0" toLane="0"/>

    <connection from="-23818221#1" to="-23818221#0" fromLane="0" toLane="0"/>
    <connection from="-23818221#1" to="23818221#1" fromLane="0" toLane="0"/>

    <connection from="-23818365#0" to="24252423#1" fromLane="0" toLane="0"/>
    <connection from="-23818365#0" to="23818365#0" fromLane="0" toLane="0"/>

    <connection from="-23818365#1" to="-23819116" fromLane="0" toLane="0"/>
    <connection from="-23818365#1" to="-23818365#0" fromLane="0" toLane="0"/>
    <connection from="-23818365#1" to="23818365#1" fromLane="0" toLane="0"/>

    <connection from="-23819116" to="243040718#4" fromLane="0" toLane="0"/>
    <connection from="-23819116" to="23819116" fromLane="0" toLane="0"/>

    <connection from="-23819685" to="395691394#0" fromLane="0" toLane="0"/>
    <connection from="-23819685" to="23819685" fromLane="0" toLane="0"/>

    <connection from="-23841660" to="32038116#3" fromLane="0" toLane="0"/>
    <connection from="-23841660" to="23841660" fromLane="0" toLane="0"/>

    <connection from="-23841670#0" to="31540505#0" fromLane="0" toLane="0"/>
    <connection from="-23841670#0" to="31540505#0" fromLane="1" toLane="1"/>
    <connection from="-23841670#0" to="-443564911" fromLane="1" toLane="0"/>
    <connection from="-23841670#0" to="-443564911" fromLane="1" toLane="1"/>
    <connection from="-23841670#0" to="23841670#0" fromLane="1" toLane="1"/>

    <connection from="-23841670#1" to="-23841670#0" fromLane="0" toLane="0"/>
    <connection from="-23841670#1" to="-23841670#0" fromLane="1" toLane="1"/>
    <connection from="-23841670#1" to="23785500" fromLane="1" toLane="0"/>
    <connection from="-23841670#1" to="23841670#1" fromLane="1" toLane="1"/>

    <connection from="-23841670#2" to="-23841670#1" fromLane="0" toLane="0"/>
    <connection from="-23841670#2" to="-23841670#1" fromLane="1" toLane="1"/>
    <connection from="-23841670#2" to="23785499#0" fromLane="1" toLane="0"/>
    <connection from="-23841670#2" to="23841670#2" fromLane="1" toLane="1"/>

    <connection from="-23912424" to="257657826#1" fromLane="0" toLane="0"/>
    <connection from="-23912424" to="-257657826#0" fromLane="0" toLane="0"/>
    <connection from="-23912424" to="23912424" fromLane="0" toLane="0"/>

    <connection from="-23912440" to="23802565#6" fromLane="0" toLane="0"/>
    <connection from="-23912440" to="23912440" fromLane="0" toLane="0"/>

    <connection from="-23912456" to="453955196#1" fromLane="0" toLane="0"/>
    <connection from="-23912456" to="23912456" fromLane="0" toLane="0"/>

    <connection from="-23947358#0" to="365965546#1" fromLane="0" toLane="0"/>
    <connection from="-23947358#0" to="23947358#0" fromLane="0" toLane="0"/>

    <connection from="-23947358#1" to="-24228720#6" fromLane="0" toLane="0"/>
    <connection from="-23947358#1" to="-23947358#0" fromLane="0" toLane="0"/>
    <connection from="-23947358#1" to="24228720#7" fromLane="0" toLane="0"/>
    <connection from="-23947358#1" to="23947358#1" fromLane="0" toLane="0"/>

    <connection from="-23947361#0" to="32113740#1" fromLane="0" toLane="0"/>
    <connection from="-23947361#0" to="23947361#0" fromLane="0" toLane="0"/>

    <connection from="-23947361#1" to="-24228720#9" fromLane="0" toLane="0"/>
    <connection from="-23947361#1" to="-23947361#0" fromLane="0" toLane="0"/>
    <connection from="-23947361#1" to="24228720#10" fromLane="0" toLane="0"/>
    <connection from="-23947361#1" to="23947361#1" fromLane="0" toLane="0"/>

    <connection from="-23947361#2" to="-23947361#1" fromLane="0" toLane="0"/>
    <connection from="-23947361#2" to="23947361#2" fromLane="0" toLane="0"/>

    <connection from="-23947367#0" to="365787222#1" fromLane="0" toLane="0"/>
    <connection from="-23947367#0" to="23947367#0" fromLane="0" toLane="0"/>

    <connection from="-23947367#1" to="-23695586#1" fromLane="0" toLane="0"/>
    <connection from="-23947367#1" to="-23947367#0" fromLane="0" toLane="0"/>
    <connection from="-23947367#1" to="23695586#2" fromLane="0" toLane="0"/>
    <connection from="-23947367#1" to="23947367#1" fromLane="0" toLane="0"/>

    <connection from="-23947367#2" to="-23947367#1" fromLane="0" toLane="0"/>
    <connection from="-23947367#2" to="23947367#2" fromLane="0" toLane="0"/>

    <connection from="-23947367#3" to="-23947367#2" fromLane="0" toLane="0"/>