<?xml version="1.0" encoding="UTF-8"?>

<!-- generated on Sun Feb  5 11:08:16 2017 by SUMO netconvert Version 0.27.1
<?xml version="1.0" encoding="UTF-8"?>

<configuration xmlns:xsi="http://www.w3.org/2001/XMLSchema-instance" xsi:noNamespaceSchemaLocation="http://sumo.dlr.de/xsd/netconvertConfiguration.xsd">

    <input>
        <type-files value="netconvert.osm.types.xml"/>
        <osm-files value="../osm/madrid_las_tablas.osm"/>
    </input>

    <output>
        <output-file value="madrid_las_tablas.net.xml"/>
        <plain-output-prefix value="madrid_las_tablas"/>
        <output.street-names value="true"/>
        <output.original-names value="true"/>
    </output>

    <projection>
        <proj.utm value="true"/>
        <proj.plain-geo value="true"/>
    </projection>

    <edge_removal>
        <remove-edges.by-type value="highway.bridleway,highway.cycleway,highway.footway,highway.ford,highway.path,highway.pedestrian,highway.service,highway.stairs,highway.step,highway.steps,highway.track,railway.light_rail,railway.preserved,railway.rail,railway.subway,railway.tram"/>
    </edge_removal>

</configuration>
-->

<edges version="0.27" xmlns:xsi="http://www.w3.org/2001/XMLSchema-instance" xsi:noNamespaceSchemaLocation="http://sumo.dlr.de/xsd/edges_file.xsd">
    <edge id="-100682788" from="260623351" to="1163945436" name="Calle de Sauceda" priority="4" type="highway.residential" numLanes="1" speed="13.89" disallow="tram rail_urban rail rail_electric ship"/>
    <edge id="-101233479" from="300023764" to="300023758" name="Camino Arroyo de Valdebebas" priority="5" type="highway.unclassified" numLanes="1" speed="13.89" shape="-3.652084,40.503159 -3.652679,40.503312 -3.652948,40.503486 -3.653053,40.503620 -3.653058,40.503799 -3.652892,40.504451" disallow="tram rail_urban rail rail_electric ship"/>
    <edge id="-103630528" from="311342326" to="146546650" name="Calle Estafeta" priority="4" type="highway.residential" numLanes="1" speed="13.89" shape="-3.651998,40.514612 -3.652085,40.514656 -3.652352,40.515153" disallow="tram rail_urban rail rail_electric ship"/>
    <edge id="-188234548#0" from="313186120" to="497120764" name="Calle Camino del Cura" priority="4" type="highway.residential" numLanes="1" speed="13.89" shape="-3.653448,40.512036 -3.654353,40.512594 -3.654521,40.512712 -3.654634,40.512841" disallow="tram rail_urban rail rail_electric ship"/>
    <edge id="-188234548#1" from="3310766729" to="313186120" name="Calle Camino del Cura" priority="4" type="highway.residential" numLanes="1" speed="13.89" disallow="tram rail_urban rail rail_electric ship"/>
    <edge id="-188234548#2" from="310392041" to="3310766729" name="Calle Camino del Cura" priority="4" type="highway.residential" numLanes="1" speed="13.89" shape="-3.652320,40.511323 -3.652402,40.511375 -3.653061,40.511791 -3.653250,40.511911" disallow="tram rail_urban rail rail_electric ship"/>
    <edge id="-193664785" from="2041851339" to="2041851340" priority="6" type="highway.tertiary" numLanes="1" speed="22.22" shape="-3.680277,40.507555 -3.680454,40.507563 -3.680570,40.507673" disallow="tram rail_urban rail rail_electric ship"/>
    <edge id="-198862601" from="311342315" to="311342316" name="Calle Camino del Encinar" priority="4" type="highway.residential" numLanes="1" speed="13.89" disallow="tram rail_urban rail rail_electric ship"/>
    <edge id="-20616415" from="3697608533" to="255456742" name="Ronda de la Comunicación" priority="4" type="highway.residential" numLanes="1" speed="13.89" shape="-3.662827,40.512424 -3.663631,40.512992 -3.663938,40.513150" disallow="tram rail_urban rail rail_electric ship"/>
    <edge id="-215446160#0" from="2248941021" to="2248941036" name="Calle de Sauceda" priority="4" type="highway.residential" numLanes="1" speed="13.89" shape="-3.666921,40.501314 -3.666758,40.501379 -3.666529,40.501460 -3.666355,40.501487" disallow="tram rail_urban rail rail_electric ship"/>
    <edge id="-215446160#1" from="3996421263" to="2248941021" name="Calle de Sauceda" priority="4" type="highway.residential" numLanes="1" speed="13.89" shape="-3.667936,40.500921 -3.667173,40.501215 -3.666921,40.501314" disallow="tram rail_urban rail rail_electric ship"/>
    <edge id="-215446160#2" from="260728571" to="3996421263" name="Calle de Sauceda" priority="4" type="highway.residential" numLanes="1" speed="13.89" disallow="tram rail_urban rail rail_electric ship"/>
    <edge id="-220958541" from="300023758" to="300023780" name="Calle de Manuel Pombo Angulo" priority="5" type="highway.unclassified" numLanes="1" speed="13.89" shape="-3.652892,40.504451 -3.652793,40.504820 -3.652563,40.505716 -3.652436,40.506237 -3.652544,40.506562 -3.652737,40.506747 -3.652962,40.506868 -3.653131,40.506951" disallow="tram rail_urban rail rail_electric ship"/>
    <edge id="-220958549#0" from="300023791" to="300023758" name="Calle de los Padres Dominicos" priority="4" type="highway.residential" numLanes="1" speed="13.89" shape="-3.654653,40.504780 -3.653954,40.504635 -3.652892,40.504451" disallow="tram rail_urban rail rail_electric ship"/>
    <edge id="-220958549#1" from="283578575" to="300023791" name="Calle de los Padres Dominicos" priority="4" type="highway.residential" numLanes="1" speed="13.89" shape="-3.656036,40.504889 -3.655882,40.504919 -3.655409,40.504902 -3.654991,40.504846 -3.654653,40.504780" disallow="tram rail_urban rail rail_electric ship"/>
    <edge id="-220958549#2" from="1168640513" to="283578575" name="Calle de los Padres Dominicos" priority="4" type="highway.residential" numLanes="1" speed="13.89" shape="-3.656613,40.504559 -3.656468,40.504695 -3.656296,40.504802 -3.656036,40.504889" disallow="tram rail_urban rail rail_electric ship"/>
    <edge id="-220958549#3" from="283578593" to="1168640513" name="Calle de los Padres Dominicos" priority="4" type="highway.residential" numLanes="1" speed="13.89" shape="-3.656703,40.503758 -3.656780,40.504023 -3.656787,40.504154 -3.656767,40.504293 -3.656728,40.504398 -3.656677,40.504481 -3.656613,40.504559" disallow="tram rail_urban rail rail_electric ship"/>
    <edge id="-220958549#4" from="283578607" to="283578593" name="Calle de los Padres Dominicos" priority="4" type="highway.residential" numLanes="1" speed="13.89" disallow="tram rail_urban rail rail_electric ship"/>
    <edge id="-220958549#5" from="2637081266" to="283578607" name="Calle de los Padres Dominicos" priority="4" type="highway.residential" numLanes="1" speed="13.89" shape="-3.656610,40.502551 -3.656614,40.502626 -3.656681,40.503432" disallow="tram rail_urban rail rail_electric ship"/>
    <edge id="-220958549#6" from="283587331" to="2637081266" name="Calle de los Padres Dominicos" priority="4" type="highway.residential" numLanes="1" speed="13.89" shape="-3.656516,40.501321 -3.656527,40.501500 -3.656610,40.502551" disallow="tram rail_urban rail rail_electric ship"/>
    <edge id="-22278675" from="1502299170" to="255456953" name="Calle Pórtico de la Gloria" priority="4" type="highway.residential" numLanes="1" speed="13.89" disallow="tram rail_urban rail rail_electric ship"/>
    <edge id="-23502729" from="259615488" to="254531918" name="Calle Quintanavides" priority="4" type="highway.residential" numLanes="1" speed="13.89" disallow="tram rail_urban rail rail_electric ship"/>
    <edge id="-23551883#0" from="255256790" to="255260399" name="Calle de Berdún" priority="4" type="highway.residential" numLanes="1" speed="13.89" disallow="tram rail_urban rail rail_electric ship"/>
    <edge id="-23551883#1" from="255256467" to="255256790" name="Calle de Berdún" priority="4" type="highway.residential" numLanes="1" speed="13.89" disallow="tram rail_urban rail rail_electric ship"/>
    <edge id="-23551884#0" from="4480673603" to="255254131" name="Calle de Eunate" priority="4" type="highway.residential" numLanes="1" speed="13.89" disallow="tram rail_urban rail rail_electric ship"/>
    <edge id="-23551884#1" from="4480673611" to="4480673603" name="Calle de Eunate" priority="4" type="highway.residential" numLanes="1" speed="13.89" shape="-3.678816,40.504736 -3.678877,40.504721 -3.678916,40.504713" disallow="tram rail_urban rail rail_electric ship"/>
    <edge id="-23551884#2" from="4480673628" to="4480673611" name="Calle de Eunate" priority="4" type="highway.residential" numLanes="1" speed="13.89" disallow="tram rail_urban rail rail_electric ship"/>
    <edge id="-23551884#3" from="255250053" to="4480673628" name="Calle de Eunate" priority="4" type="highway.residential" numLanes="1" speed="13.89" shape="-3.677940,40.504919 -3.678003,40.504906 -3.678080,40.504891" disallow="tram rail_urban rail rail_electric ship"/>
    <edge id="-23551886" from="255250577" to="255257985" name="Calle de Burguete" priority="4" type="highway.residential" numLanes="1" speed="13.89" disallow="tram rail_urban rail rail_electric ship"/>
    <edge id="-23568752#0" from="4480673624" to="255250052" priority="4" type="highway.residential" numLanes="1" speed="13.89" shape="-3.678112,40.505417 -3.678135,40.505475 -3.678153,40.505522" disallow="tram rail_urban rail rail_electric ship"/>
    <edge id="-23568752#1" from="255250053" to="4480673624" priority="4" type="highway.residential" numLanes="1" speed="13.89" disallow="tram rail_urban rail rail_electric ship"/>
    <edge id="-23569651" from="255250703" to="255250702" priority="4" type="highway.residential" numLanes="1" speed="13.89" shape="-3.676218,40.503087 -3.676361,40.503058 -3.676806,40.502967" disallow="tram rail_urban rail rail_electric ship"/>
    <edge id="-23569655" from="255250731" to="255254274" priority="4" type="highway.residential" numLanes="1" speed="13.89" disallow="tram rail_urban rail rail_electric ship"/>
    <edge id="-23569686" from="255258429" to="255251211" priority="4" type="highway.residential" numLanes="1" speed="13.89" disallow="tram rail_urban rail rail_electric ship"/>
    <edge id="-23569688" from="255251220" to="255251214" priority="4" type="highway.residential" numLanes="1" speed="13.89" disallow="tram rail_urban rail rail_electric ship"/>
    <edge id="-23569730" from="255251416" to="255251406" priority="4" type="highway.residential" numLanes="1" speed="13.89" disallow="tram rail_urban rail rail_electric ship"/>
    <edge id="-23569944" from="255256790" to="255250045" priority="4" type="highway.residential" numLanes="1" speed="13.89" disallow="tram rail_urban rail rail_electric ship"/>
    <edge id="-23569963#0" from="4480673619" to="255250040" priority="4" type="highway.residential" numLanes="1" speed="13.89" shape="-3.679175,40.505689 -3.678732,40.505779 -3.678667,40.505792" disallow="tram rail_urban rail rail_electric ship"/>
    <edge id="-23569963#1" from="4480673604" to="4480673619" priority="4" type="highway.residential" numLanes="1" speed="13.89" shape="-3.679264,40.505671 -3.679241,40.505677 -3.679175,40.505689" disallow="tram rail_urban rail rail_electric ship"/>
    <edge id="-23569963#2" from="255254130" to="4480673604" priority="4" type="highway.residential" numLanes="1" speed="13.89" disallow="tram rail_urban rail rail_electric ship"/>
    <edge id="-23570103#0" from="255260632" to="255023280" name="Calle de Villava" priority="4" type="highway.residential" numLanes="1" speed="13.89" disallow="tram rail_urban rail rail_electric ship"/>
    <edge id="-23570103#1" from="255259059" to="255260632" name="Calle de Villava" priority="4" type="highway.residential" numLanes="1" speed="13.89" disallow="tram rail_urban rail rail_electric ship"/>
    <edge id="-23570193" from="255260774" to="255260696" priority="4" type="highway.residential" numLanes="1" speed="13.89" disallow="tram rail_urban rail rail_electric ship"/>
    <edge id="-23570208" from="255260771" to="255260697" priority="4" type="highway.residential" numLanes="1" speed="13.89" disallow="tram rail_urban rail rail_electric ship"/>
    <edge id="-23570218#0" from="255484799" to="255260635" priority="4" type="highway.residential" numLanes="1" speed="13.89" disallow="tram rail_urban rail rail_electric ship"/>
    <edge id="-23570218#1" from="255964006" to="255484799" priority="4" type="highway.residential" numLanes="1" speed="13.89" disallow="tram rail_urban rail rail_electric ship"/>
    <edge id="-23570228#0" from="255260632" to="255260893" priority="4" type="highway.residential" numLanes="1" speed="13.89" disallow="tram rail_urban rail rail_electric ship"/>
    <edge id="-23570228#1" from="255260911" to="255260632" priority="4" type="highway.residential" numLanes="1" speed="13.89" disallow="tram rail_urban rail rail_electric ship"/>
    <edge id="-23570228#2" from="255260891" to="255260911" priority="4" type="highway.residential" numLanes="1" speed="13.89" disallow="tram rail_urban rail rail_electric ship"/>
    <edge id="-23570763#0" from="2637091833" to="255281459" name="Calle de Catalina de Austria" priority="4" type="highway.residential" numLanes="1" speed="13.89" shape="-3.659717,40.499308 -3.659808,40.499364 -3.660008,40.499505" disallow="tram rail_urban rail rail_electric ship"/>
    <edge id="-23570763#1" from="4234121239" to="2637091833" name="Calle de Catalina de Austria" priority="4" type="highway.residential" numLanes="1" speed="13.89" disallow="tram rail_urban rail rail_electric ship"/>
    <edge id="-23570763#2" from="3057812621" to="4234121239" name="Calle de Catalina de Austria" priority="4" type="highway.residential" numLanes="1" speed="13.89" disallow="tram rail_urban rail rail_electric ship"/>
    <edge id="-23570763#3" from="255264975" to="3057812621" name="Calle de Catalina de Austria" priority="4" type="highway.residential" numLanes="1" speed="13.89" disallow="tram rail_urban rail rail_electric ship"/>
    <edge id="-23570799#0" from="256581686" to="256431142" name="Calle de Población de Campos" priority="4" type="highway.residential" numLanes="1" speed="13.89" disallow="tram rail_urban rail rail_electric ship"/>
    <edge id="-23570799#1" from="255265427" to="256581686" name="Calle de Población de Campos" priority="4" type="highway.residential" numLanes="1" speed="13.89" disallow="tram rail_urban rail rail_electric ship"/>
    <edge id="-23570800#0" from="256581746" to="256431088" name="Calle de Campo de la Estrella" priority="4" type="highway.residential" numLanes="1" speed="13.89" shape="-3.672205,40.503938 -3.672309,40.503850 -3.673248,40.503051" disallow="tram rail_urban rail rail_electric ship"/>
    <edge id="-23570800#1" from="255265430" to="256581746" name="Calle de Campo de la Estrella" priority="4" type="highway.residential" numLanes="1" speed="13.89" shape="-3.671242,40.504764 -3.671346,40.504675 -3.672093,40.504030 -3.672205,40.503938" disallow="tram rail_urban rail rail_electric ship"/>
    <edge id="-23572294#0" from="258129992" to="256581835" name="Calle de Quintanadueñas" priority="4" type="highway.residential" numLanes="1" speed="13.89" shape="-3.670534,40.498426 -3.670140,40.498769 -3.669497,40.499316" disallow="tram rail_urban rail rail_electric ship"/>
    <edge id="-23572294#1" from="258149633" to="258129992" name="Calle de Quintanadueñas" priority="4" type="highway.residential" numLanes="1" speed="13.89" disallow="tram rail_urban rail rail_electric ship"/>
    <edge id="-23572294#2" from="255280253" to="258149633" name="Calle de Quintanadueñas" priority="4" type="highway.residential" numLanes="1" speed="13.89" disallow="tram rail_urban rail rail_electric ship"/>
    <edge id="-23590637#0" from="3007224934" to="221313800" name="Ronda de la Comunicación" priority="4" type="highway.residential" numLanes="1" speed="13.89" disallow="tram rail_urban rail rail_electric ship"/>
    <edge id="-23590637#1" from="255456498" to="3007224934" name="Ronda de la Comunicación" priority="4" type="highway.residential" numLanes="1" speed="13.89" shape="-3.664570,40.513608 -3.664846,40.513831 -3.666379,40.514876 -3.667116,40.515378 -3.667212,40.515524 -3.667159,40.515674 -3.666689,40.516083" disallow="tram rail_urban rail rail_electric ship"/>
    <edge id="-23590694" from="602191968" to="255457259" name="Ronda de la Comunicación" priority="4" type="highway.residential" numLanes="1" speed="13.89" shape="-3.658470,40.513817 -3.658683,40.513743 -3.659109,40.513478 -3.659350,40.513317" disallow="tram rail_urban rail rail_electric ship"/>
    <edge id="-23628728#0" from="262066726" to="255961324" name="Calle Castiello de Jaca" priority="4" type="highway.residential" numLanes="1" speed="13.89" disallow="tram rail_urban rail rail_electric ship"/>
    <edge id="-23628728#1" from="256523058" to="262066726" name="Calle Castiello de Jaca" priority="4" type="highway.residential" numLanes="1" speed="13.89" shape="-3.678262,40.508778 -3.678311,40.508911 -3.678606,40.509691" disallow="tram rail_urban rail rail_electric ship"/>
    <edge id="-23628728#2" from="255961472" to="256523058" name="Calle Castiello de Jaca" priority="4" type="highway.residential" numLanes="1" speed="13.89" disallow="tram rail_urban rail rail_electric ship"/>
    <edge id="-23681466" from="254531925" to="258164859" name="Calle Quintanavides" priority="4" type="highway.residential" numLanes="1" speed="13.89" shape="-3.669054,40.498601 -3.668924,40.498372 -3.668792,40.498152" disallow="tram rail_urban rail rail_electric ship"/>
    <edge id="-23681482#0" from="256428615" to="255251002" name="Calle Puente la Reina" priority="4" type="highway.residential" numLanes="1" speed="13.89" disallow="tram rail_urban rail rail_electric ship"/>
    <edge id="-23681482#1" from="256427877" to="256428615" name="Calle Puente la Reina" priority="4" type="highway.residential" numLanes="1" speed="13.89" disallow="tram rail_urban rail rail_electric ship"/>
    <edge id="-23681482#2" from="255250904" to="256427877" name="Calle Puente la Reina" priority="4" type="highway.residential" numLanes="1" speed="13.89" shape="-3.677075,40.502529 -3.677043,40.502424 -3.676867,40.501909" disallow="tram rail_urban rail rail_electric ship"/>
    <edge id="-23689459#0" from="310391994" to="256522724" name="Calle de Portomarín" priority="4" type="highway.residential" numLanes="1" speed="13.89" shape="-3.671195,40.514001 -3.671283,40.514005 -3.671398,40.513964" disallow="tram rail_urban rail rail_electric ship"/>
    <edge id="-23689459#1" from="1046903019" to="310391994" name="Calle de Portomarín" priority="4" type="highway.residential" numLanes="1" speed="13.89" shape="-3.670720,40.513741 -3.670874,40.513872 -3.671017,40.513950 -3.671109,40.513982 -3.671195,40.514001" disallow="tram rail_urban rail rail_electric ship"/>
    <edge id="-23689459#2" from="256522807" to="1046903019" name="Calle de Portomarín" priority="4" type="highway.residential" numLanes="1" speed="13.89" shape="-3.669307,40.512920 -3.669918,40.513177 -3.670426,40.513490 -3.670720,40.513741" disallow="tram rail_urban rail rail_electric ship"/>
    <edge id="-23689459#3" from="258124601" to="256522807" name="Calle de Portomarín" priority="4" type="highway.residential" numLanes="1" speed="13.89" shape="-3.668328,40.512569 -3.668504,40.512653 -3.668903,40.512794 -3.669307,40.512920" disallow="tram rail_urban rail rail_electric ship"/>
    <edge id="-23689459#4" from="258125756" to="258124601" name="Calle de Portomarín" priority="4" type="highway.residential" numLanes="1" speed="13.89" shape="-3.667700,40.511928 -3.667769,40.512057 -3.667940,40.512259 -3.668149,40.512443 -3.668328,40.512569" disallow="tram rail_urban rail rail_electric ship"/>
    <edge id="-23689459#5" from="310391995" to="258125756" name="Calle de Portomarín" priority="4" type="highway.residential" numLanes="1" speed="13.89" shape="-3.667333,40.511502 -3.667430,40.511572 -3.667514,40.511673 -3.667626,40.511795 -3.667700,40.511928" disallow="tram rail_urban rail rail_electric ship"/>
    <edge id="-23689552#0" from="266764452" to="256521796" name="Calle de Monasterio de Candanchú" priority="4" type="highway.residential" numLanes="1" speed="13.89" disallow="tram rail_urban rail rail_electric ship"/>
    <edge id="-23689552#1" from="255256467" to="266764452" name="Calle de Monasterio de Candanchú" priority="4" type="highway.residential" numLanes="1" speed="13.89" disallow="tram rail_urban rail rail_electric ship"/>
    <edge id="-23695586#0" from="259587929" to="259587930" name="Calle Viloria de Rioja" priority="4" type="highway.residential" numLanes="1" speed="13.89" disallow="tram rail_urban rail rail_electric ship"/>
    <edge id="-23695586#1" from="259587928" to="259587929" name="Calle Viloria de Rioja" priority="4" type="highway.residential" numLanes="1" speed="13.89" disallow="tram rail_urban rail rail_electric ship"/>
    <edge id="-23695586#2" from="4435266072" to="259587928" name="Calle Viloria de Rioja" priority="4" type="highway.residential" numLanes="1" speed="13.89" disallow="tram rail_urban rail rail_electric ship"/>
    <edge id="-23695586#3" from="256668083" to="4435266072" name="Calle Viloria de Rioja" priority="4" type="highway.residential" numLanes="1" speed="13.89" shape="-3.670413,40.502714 -3.670357,40.502675 -3.670298,40.502634" disallow="tram rail_urban rail rail_electric ship"/>
    <edge id="-23695586#4" from="255265425" to="256668083" name="Calle Viloria de Rioja" priority="4" type="highway.residential" numLanes="1" speed="13.89" disallow="tram rail_urban rail rail_electric ship"/>
    <edge id="-23695586#5" from="256581686" to="255265425" name="Calle Viloria de Rioja" priority="4" type="highway.residential" numLanes="1" speed="13.89" disallow="tram rail_urban rail rail_electric ship"/>
    <edge id="-23695586#6" from="256581746" to="256581686" name="Calle Viloria de Rioja" priority="4" type="highway.residential" numLanes="1" speed="13.89" disallow="tram rail_urban rail rail_electric ship"/>
    <edge id="-23695586#7" from="259587960" to="256581746" name="Calle Viloria de Rioja" priority="4" type="highway.residential" numLanes="1" speed="13.89" shape="-3.672962,40.504453 -3.672853,40.504380 -3.672205,40.503938" disallow="tram rail_urban rail rail_electric ship"/>
    <edge id="-23695586#8" from="255265465" to="259587960" name="Calle Viloria de Rioja" priority="4" type="highway.residential" numLanes="1" speed="13.89" disallow="tram rail_urban rail rail_electric ship"/>
    <edge id="-23785391" from="256522807" to="257714627" name="Calle de Frómista" priority="4" type="highway.residential" numLanes="1" speed="13.89" shape="-3.669307,40.512920 -3.670388,40.512001 -3.670530,40.511938" disallow="tram rail_urban rail rail_electric ship"/>
    <edge id="-23785401" from="257717661" to="257717662" name="Calle de San Julián del Camino" priority="4" type="highway.residential" numLanes="1" speed="13.89" shape="-3.671445,40.509924 -3.671297,40.510041 -3.670199,40.510974" disallow="tram rail_urban rail rail_electric ship"/>
    <edge id="-23785404" from="257717610" to="257717612" name="Calle de Triacastela" priority="4" type="highway.residential" numLanes="1" speed="13.89" shape="-3.670678,40.509396 -3.670537,40.509510 -3.669431,40.510458" disallow="tram rail_urban rail rail_electric ship"/>
    <edge id="-23785440" from="1046902497" to="257926688" name="Calle de Vilar de Donas" priority="4" type="highway.residential" numLanes="1" speed="13.89" shape="-3.664685,40.509129 -3.664976,40.508865 -3.665527,40.508416" disallow="tram rail_urban rail rail_electric ship"/>
    <edge id="-23785464#0" from="3414789911" to="257926974" name="Paseo de la Tierra de Melide" priority="4" type="highway.residential" numLanes="1" speed="13.89" shape="-3.660660,40.505089 -3.660885,40.505137 -3.661044,40.505160" disallow="tram rail_urban rail rail_electric ship"/>
    <edge id="-23785464#1" from="3414789904" to="3414789911" name="Paseo de la Tierra de Melide" priority="4" type="highway.residential" numLanes="1" speed="13.89" disallow="tram rail_urban rail rail_electric ship"/>
    <edge id="-23785464#2" from="257926975" to="3414789904" name="Paseo de la Tierra de Melide" priority="4" type="highway.residential" numLanes="1" speed="13.89" shape="-3.659361,40.504745 -3.659569,40.504798 -3.659723,40.504838" disallow="tram rail_urban rail rail_electric ship"/>
    <edge id="-23785472" from="257926868" to="257927145" name="Calle de Cebreiro" priority="4" type="highway.residential" numLanes="1" speed="13.89" shape="-3.662829,40.504082 -3.662722,40.504175 -3.661798,40.504966 -3.661676,40.505046" disallow="tram rail_urban rail rail_electric ship"/>
    <edge id="-23785475#0" from="257717215" to="257717343" name="Calle de Redecilla del Camino" priority="4" type="highway.residential" numLanes="1" speed="13.89" disallow="tram rail_urban rail rail_electric ship"/>
    <edge id="-23785475#1" from="257717216" to="257717215" name="Calle de Redecilla del Camino" priority="4" type="highway.residential" numLanes="1" speed="13.89" shape="-3.668656,40.506958 -3.668786,40.506852 -3.669758,40.506023" disallow="tram rail_urban rail rail_electric ship"/>
    <edge id="-23785477#0" from="257717290" to="257717380" name="Calle de Rabé de las Calzadas" priority="4" type="highway.residential" numLanes="1" speed="13.89" shape="-3.670550,40.506562 -3.671410,40.505832 -3.671518,40.505742" disallow="tram rail_urban rail rail_electric ship"/>
    <edge id="-23785477#1" from="257717291" to="257717290" name="Calle de Rabé de las Calzadas" priority="4" type="highway.residential" numLanes="1" speed="13.89" disallow="tram rail_urban rail rail_electric ship"/>
    <edge id="-23785487#0" from="310391991" to="256523128" name="Calle de Palas de Rey" priority="4" type="highway.residential" numLanes="2" speed="13.89" disallow="tram rail_urban rail rail_electric ship"/>
    <edge id="-23785487#1" from="256523119" to="310391991" name="Calle de Palas de Rey" priority="4" type="highway.residential" numLanes="2" speed="13.89" disallow="tram rail_urban rail rail_electric ship"/>
    <edge id="-23785487#2" from="256523093" to="256523119" name="Calle de Palas de Rey" priority="4" type="highway.residential" numLanes="2" speed="13.89" disallow="tram rail_urban rail rail_electric ship"/>
    <edge id="-23785487#3" from="257717661" to="256523093" name="Calle de Palas de Rey" priority="4" type="highway.residential" numLanes="2" speed="13.89" shape="-3.671445,40.509924 -3.671566,40.510007 -3.672586,40.510705 -3.672691,40.510845" disallow="tram rail_urban rail rail_electric ship"/>
    <edge id="-23785487#4" from="257717610" to="257717661" name="Calle de Palas de Rey" priority="4" type="highway.residential" numLanes="2" speed="13.89" shape="-3.670678,40.509396 -3.670800,40.509480 -3.671445,40.509924" disallow="tram rail_urban rail rail_electric ship"/>
    <edge id="-23785487#5" from="257926450" to="257717610" name="Calle de Palas de Rey" priority="4" type="highway.residential" numLanes="2" speed="13.89" disallow="tram rail_urban rail rail_electric ship"/>
    <edge id="-23785487#6" from="257926481" to="257926450" name="Calle de Palas de Rey" priority="4" type="highway.residential" numLanes="2" speed="13.89" disallow="tram rail_urban rail rail_electric ship"/>
    <edge id="-23785487#7" from="257924749" to="257926481" name="Calle de Palas de Rey" priority="4" type="highway.residential" numLanes="2" speed="13.89" disallow="tram rail_urban rail rail_electric ship"/>
    <edge id="-23785499#0" from="2636374835" to="257718888" name="Calle de Grañón" priority="4" type="highway.residential" numLanes="1" speed="13.89" shape="-3.674565,40.506102 -3.674714,40.506093 -3.676119,40.506036" disallow="tram rail_urban rail rail_electric ship"/>
    <edge id="-23785499#1" from="257718170" to="2636374835" name="Calle de Grañón" priority="4" type="highway.residential" numLanes="1" speed="13.89" disallow="tram rail_urban rail rail_electric ship"/>
    <edge id="-23785500" from="255265463" to="257718616" name="Calle de Hontanás" priority="4" type="highway.residential" numLanes="1" speed="13.89" shape="-3.673968,40.505137 -3.674070,40.505047 -3.674852,40.504373 -3.674995,40.504248" disallow="tram rail_urban rail rail_electric ship"/>
    <edge id="-23785502#0" from="257718337" to="257718336" name="Calle de Rabanal del Camino" priority="4" type="highway.residential" numLanes="1" speed="13.89" disallow="tram rail_urban rail rail_electric ship"/>
    <edge id="-23785502#1" from="257718338" to="257718337" name="Calle de Rabanal del Camino" priority="4" type="highway.residential" numLanes="1" speed="13.89" shape="-3.672915,40.508831 -3.672909,40.508642 -3.672842,40.507751 -3.672840,40.507694 -3.672833,40.507575" disallow="tram rail_urban rail rail_electric ship"/>
    <edge id="-23802586#0" from="4414797143" to="257924754" name="Calle de Toques" priority="4" type="highway.residential" numLanes="1" speed="13.89" shape="-3.667602,40.509057 -3.667556,40.509096 -3.667508,40.509135" disallow="tram rail_urban rail rail_electric ship"/>
    <edge id="-23802586#1" from="2631422922" to="4414797143" name="Calle de Toques" priority="4" type="highway.residential" numLanes="1" speed="13.89" disallow="tram rail_urban rail rail_electric ship"/>
    <edge id="-23802586#2" from="257924749" to="2631422922" name="Calle de Toques" priority="4" type="highway.residential" numLanes="1" speed="13.89" shape="-3.668722,40.508119 -3.668660,40.508171 -3.668621,40.508203" disallow="tram rail_urban rail rail_electric ship"/>
    <edge id="-23802588#0" from="4414797147" to="257924757" name="Calle de Mirallos" priority="4" type="highway.residential" numLanes="1" speed="13.89" disallow="tram rail_urban rail rail_electric ship"/>
    <edge id="-23802588#1" from="2631422858" to="4414797147" name="Calle de Mirallos" priority="4" type="highway.residential" numLanes="1" speed="13.89" disallow="tram rail_urban rail rail_electric ship"/>
    <edge id="-23802588#2" from="257926746" to="2631422858" name="Calle de Mirallos" priority="4" type="highway.residential" numLanes="1" speed="13.89" disallow="tram rail_urban rail rail_electric ship"/>