<?xml version="1.0" encoding="UTF-8"?>

<configuration xmlns:xsi="http://www.w3.org/2001/XMLSchema-instance" xsi:noNamespaceSchemaLocation="http://sumo.dlr.de/xsd/duarouterConfiguration.xsd">

    <input>
        <net-file value="madrid_las_tablas_M_nomaps_tele60_fulltrafic.net.xml"/>
        <trip-files value="madrid_las_tablas_M_nomaps_tele60_fulltrafic.trip.xml"/>
    </input>

    <output>
        <output-file value="madrid_las_tablas_M_nomaps_tele60_fulltrafic.routes.xml"/>
    </output>

    <processing>
        <remove-loops value="true"/>
        <max-alternatives value="10"/>
        <ignore-errors value="true"/>
        <repair value="true"/>
        <repair.from value="true"/>
        <repair.to value="true"/>
    </processing>

    <time>
        <begin value="0"/>
        <end value="3600"/>
    </time>

</configuration>
