<configuration>
    <input>
        <net-file value="net.net.xml"/>
        <route-files value="grid.rou.xml"/>
        <remote-port value="2081"/>
    </input>

    <time>
        <begin value="0"/>
        <end value="200"/>
    </time>

    <processing>
        <time-to-teleport value="-1"/>
    </processing>

</configuration>