<?xml version="1.0" encoding="UTF-8"?>

<!-- generated on 07/08/16 17:21:14 by SUMO netconvert Version 0.23.0
<?xml version="1.0" encoding="UTF-8"?>

<configuration xmlns:xsi="http://www.w3.org/2001/XMLSchema-instance" xsi:noNamespaceSchemaLocation="http://sumo.dlr.de/xsd/netconvertConfiguration.xsd">

    <input>
        <node-files value="nodes.nod.xml"/>
        <edge-files value="edges.edg.xml"/>
        <type-files value="TAZ.xml"/>
    </input>

    <output>
        <output-file value="net.net.xml"/>
    </output>

</configuration>
-->

<net version="0.13" xmlns:xsi="http://www.w3.org/2001/XMLSchema-instance" xsi:noNamespaceSchemaLocation="http://sumo.dlr.de/xsd/net_file.xsd">

    <location netOffset="15.00,1000.00" convBoundary="0.00,0.00,2030.00,1000.00" origBoundary="-15.00,-1000.00,2015.00,0.00" projParameter="!"/>

    <edge id=":0A_0" function="internal">
        <lane id=":0A_0_0" index="0" speed="300.00" length="4.82" shape="0.00,1001.65 -1.24,1000.83 -1.65,1000.00 -1.24,999.17 0.00,998.35"/>
    </edge>
    <edge id=":0B_0" function="internal">
        <lane id=":0B_0_0" index="0" speed="300.00" length="4.82" shape="0.00,501.65 -1.24,500.82 -1.65,500.00 -1.24,499.18 0.00,498.35"/>
    </edge>
    <edge id=":0L_0" function="internal">
        <lane id=":0L_0_0" index="0" speed="300.00" length="4.82" shape="2030.00,998.35 2031.24,999.17 2031.65,1000.00 2031.24,1000.83 2030.00,1001.65"/>
    </edge>
    <edge id=":0M_0" function="internal">
        <lane id=":0M_0_0" index="0" speed="300.00" length="4.82" shape="2030.00,-1.65 2031.24,-0.83 2031.65,-0.00 2031.24,0.82 2030.00,1.65"/>
    </edge>
    <edge id=":A_0" function="internal">
        <lane id=":A_0_0" index="0" speed="198.59" length="14.10" shape="24.35,1001.65 20.74,1001.65 17.30,1001.65 13.86,1001.65 10.25,1001.65"/>
    </edge>
    <edge id=":A_1" function="internal">
        <lane id=":A_1_0" index="0" speed="83.30" length="6.83" shape="24.35,1001.65 19.54,1000.96 17.85,999.95"/>
    </edge>
    <edge id=":A_2" function="internal">
        <lane id=":A_2_0" index="0" speed="71.53" length="7.15" shape="24.35,1001.65 19.10,1001.06 17.60,999.95"/>
    </edge>
    <edge id=":A_3" function="internal">
        <lane id=":A_3_0" index="0" speed="97.18" length="2.41" shape="24.35,1001.65 23.11,1000.83 22.70,1000.00"/>
    </edge>
    <edge id=":A_16" function="internal">
        <lane id=":A_16_0" index="0" speed="83.30" length="10.91" shape="17.85,999.95 16.10,998.90 14.04,995.46 13.35,990.65"/>
    </edge>
    <edge id=":A_17" function="internal">
        <lane id=":A_17_0" index="0" speed="71.53" length="9.36" shape="17.60,999.95 16.71,999.29 17.15,996.35 20.44,992.22"/>
    </edge>
    <edge id=":A_18" function="internal">
        <lane id=":A_18_0" index="0" speed="97.18" length="2.41" shape="22.70,1000.00 23.11,999.17 24.35,998.35"/>
    </edge>
    <edge id=":A_4" function="internal">
        <lane id=":A_4_0" index="0" speed="71.53" length="6.64" shape="22.78,994.56 21.45,996.22 21.27,997.40 22.24,998.11 24.35,998.35"/>
    </edge>
    <edge id=":A_5" function="internal">
        <lane id=":A_5_0" index="0" speed="172.94" length="14.72" shape="22.78,994.56 19.33,997.66 16.10,999.88 13.07,1001.21 10.25,1001.65"/>
    </edge>
    <edge id=":A_6" function="internal">
        <lane id=":A_6_0" index="0" speed="57.65" length="16.51" shape="22.78,994.56 18.65,997.85 15.71,998.29 13.94,995.90 13.35,990.65"/>
    </edge>
    <edge id=":A_7" function="internal">
        <lane id=":A_7_0" index="0" speed="45.89" length="4.82" shape="22.78,994.56 21.32,994.85 20.44,994.56 20.15,993.68 20.44,992.22"/>
    </edge>
    <edge id=":A_8" function="internal">
        <lane id=":A_8_0" index="0" speed="57.65" length="6.64" shape="16.65,990.65 16.89,992.76 17.60,993.73 18.78,993.55 20.44,992.22"/>
    </edge>
    <edge id=":A_9" function="internal">
        <lane id=":A_9_0" index="0" speed="83.30" length="12.41" shape="16.65,990.65 17.13,994.02 18.57,996.43 20.98,997.87 24.35,998.35"/>
    </edge>
    <edge id=":A_10" function="internal">
        <lane id=":A_10_0" index="0" speed="184.70" length="14.22" shape="16.65,990.65 16.25,995.46 15.05,998.90 13.05,1000.96 10.25,1001.65"/>
    </edge>
    <edge id=":A_11" function="internal">
        <lane id=":A_11_0" index="0" speed="69.41" length="4.82" shape="16.65,990.65 15.82,991.89 15.00,992.30 14.18,991.89 13.35,990.65"/>
    </edge>
    <edge id=":A_12" function="internal">
        <lane id=":A_12_0" index="0" speed="184.70" length="9.02" shape="10.25,998.35 11.61,997.87 12.58,996.43 13.16,994.02 13.35,990.65"/>
    </edge>
    <edge id=":A_13" function="internal">
        <lane id=":A_13_0" index="0" speed="172.94" length="12.14" shape="10.25,998.35 12.41,997.97 14.83,996.82 17.51,994.90 20.44,992.22"/>
    </edge>
    <edge id=":A_14" function="internal">
        <lane id=":A_14_0" index="0" speed="198.59" length="14.10" shape="10.25,998.35 13.86,998.35 17.30,998.35 20.74,998.35 24.35,998.35"/>
    </edge>
    <edge id=":A_15" function="internal">
        <lane id=":A_15_0" index="0" speed="300.00" length="2.41" shape="10.25,998.35 11.49,999.17 11.90,1000.00"/>
    </edge>
    <edge id=":A_19" function="internal">
        <lane id=":A_19_0" index="0" speed="300.00" length="2.41" shape="11.90,1000.00 11.49,1000.83 10.25,1001.65"/>
    </edge>
    <edge id=":B_0" function="internal">
        <lane id=":B_0_0" index="0" speed="184.70" length="5.00" shape="13.35,504.75 13.16,503.39 12.57,502.42 11.61,501.84 10.25,501.65"/>
    </edge>
    <edge id=":B_1" function="internal">
        <lane id=":B_1_0" index="0" speed="66.00" length="14.72" shape="13.35,504.75 13.79,501.93 15.12,498.90 17.34,495.67 20.44,492.22"/>
    </edge>
    <edge id=":B_2" function="internal">
        <lane id=":B_2_0" index="0" speed="56.59" length="14.22" shape="13.35,504.75 14.04,501.95 16.10,499.95 19.54,498.75 24.35,498.35"/>
    </edge>
    <edge id=":B_3" function="internal">
        <lane id=":B_3_0" index="0" speed="69.41" length="4.82" shape="13.35,504.75 14.17,503.51 15.00,503.10 15.82,503.51 16.65,504.75"/>
    </edge>
    <edge id=":B_4" function="internal">
        <lane id=":B_4_0" index="0" speed="56.59" length="9.02" shape="24.35,501.65 20.98,501.84 18.57,502.42 17.13,503.39 16.65,504.75"/>
    </edge>
    <edge id=":B_5" function="internal">
        <lane id=":B_5_0" index="0" speed="171.88" length="14.10" shape="24.35,501.65 20.74,501.65 17.30,501.65 13.86,501.65 10.25,501.65"/>
    </edge>
    <edge id=":B_6" function="internal">
        <lane id=":B_6_0" index="0" speed="53.17" length="7.15" shape="24.35,501.65 19.10,501.06 17.60,499.95"/>
    </edge>
    <edge id=":B_7" function="internal">
        <lane id=":B_7_0" index="0" speed="43.77" length="2.41" shape="24.35,501.65 23.11,500.82 22.70,500.00"/>
    </edge>
    <edge id=":B_16" function="internal">
        <lane id=":B_16_0" index="0" speed="53.17" length="9.36" shape="17.60,499.95 16.71,499.29 17.15,496.35 20.44,492.22"/>
    </edge>
    <edge id=":B_17" function="internal">
        <lane id=":B_17_0" index="0" speed="43.77" length="2.41" shape="22.70,500.00 23.11,499.18 24.35,498.35"/>
    </edge>
    <edge id=":B_8" function="internal">
        <lane id=":B_8_0" index="0" speed="53.17" length="6.64" shape="22.78,494.56 21.45,496.22 21.27,497.40 22.24,498.11 24.35,498.35"/>
    </edge>
    <edge id=":B_9" function="internal">
        <lane id=":B_9_0" index="0" speed="66.00" length="12.14" shape="22.78,494.56 20.10,497.49 18.18,500.17 17.03,502.59 16.65,504.75"/>
    </edge>
    <edge id=":B_10" function="internal">
        <lane id=":B_10_0" index="0" speed="181.29" length="14.72" shape="22.78,494.56 19.33,497.66 16.10,499.88 13.07,501.21 10.25,501.65"/>
    </edge>
    <edge id=":B_11" function="internal">
        <lane id=":B_11_0" index="0" speed="62.58" length="4.82" shape="22.78,494.56 21.32,494.85 20.44,494.56 20.15,493.68 20.44,492.22"/>
    </edge>
    <edge id=":B_12" function="internal">
        <lane id=":B_12_0" index="0" speed="181.29" length="12.14" shape="10.25,498.35 12.41,497.97 14.83,496.82 17.51,494.90 20.44,492.22"/>
    </edge>
    <edge id=":B_13" function="internal">
        <lane id=":B_13_0" index="0" speed="171.88" length="14.10" shape="10.25,498.35 13.86,498.35 17.30,498.35 20.74,498.35 24.35,498.35"/>
    </edge>
    <edge id=":B_14" function="internal">
        <lane id=":B_14_0" index="0" speed="184.70" length="5.28" shape="10.25,498.35 13.05,498.75 15.05,499.95 15.11,500.05"/>
    </edge>
    <edge id=":B_15" function="internal">
        <lane id=":B_15_0" index="0" speed="300.00" length="2.41" shape="10.25,498.35 11.49,499.18 11.90,500.00"/>
    </edge>
    <edge id=":B_18" function="internal">
        <lane id=":B_18_0" index="0" speed="184.70" length="5.04" shape="15.11,500.05 16.25,501.95 16.65,504.75"/>
    </edge>
    <edge id=":B_19" function="internal">
        <lane id=":B_19_0" index="0" speed="300.00" length="2.41" shape="11.90,500.00 11.49,500.82 10.25,501.65"/>
    </edge>
    <edge id=":C_0" function="internal">
        <lane id=":C_0_0" index="0" speed="70.68" length="14.10" shape="524.35,1001.65 520.74,1001.65 517.30,1001.65 513.86,1001.65 510.25,1001.65"/>
    </edge>
    <edge id=":C_1" function="internal">
        <lane id=":C_1_0" index="0" speed="56.47" length="6.83" shape="524.35,1001.65 519.54,1000.96 517.85,999.95"/>
    </edge>
    <edge id=":C_2" function="internal">
        <lane id=":C_2_0" index="0" speed="60.33" length="7.15" shape="524.35,1001.65 519.10,1001.06 517.60,999.95"/>
    </edge>
    <edge id=":C_3" function="internal">
        <lane id=":C_3_0" index="0" speed="44.17" length="2.41" shape="524.35,1001.65 523.11,1000.83 522.70,1000.00"/>
    </edge>
    <edge id=":C_16" function="internal">
        <lane id=":C_16_0" index="0" speed="56.47" length="10.91" shape="517.85,999.95 516.10,998.90 514.04,995.46 513.35,990.65"/>
    </edge>
    <edge id=":C_17" function="internal">
        <lane id=":C_17_0" index="0" speed="60.33" length="9.36" shape="517.60,999.95 516.71,999.29 517.15,996.35 520.44,992.22"/>
    </edge>
    <edge id=":C_18" function="internal">
        <lane id=":C_18_0" index="0" speed="44.17" length="2.41" shape="522.70,1000.00 523.11,999.17 524.35,998.35"/>
    </edge>
    <edge id=":C_4" function="internal">
        <lane id=":C_4_0" index="0" speed="53.38" length="6.64" shape="522.78,994.56 521.45,996.22 521.27,997.40 522.24,998.11 524.35,998.35"/>
    </edge>
    <edge id=":C_5" function="internal">
        <lane id=":C_5_0" index="0" speed="79.88" length="14.72" shape="522.78,994.56 519.33,997.66 516.10,999.88 513.07,1001.21 510.25,1001.65"/>
    </edge>
    <edge id=":C_6" function="internal">
        <lane id=":C_6_0" index="0" speed="65.67" length="16.51" shape="522.78,994.56 518.65,997.85 515.71,998.29 513.94,995.90 513.35,990.65"/>
    </edge>
    <edge id=":C_7" function="internal">
        <lane id=":C_7_0" index="0" speed="69.53" length="4.82" shape="522.78,994.56 521.32,994.85 520.44,994.56 520.15,993.68 520.44,992.22"/>
    </edge>
    <edge id=":C_8" function="internal">
        <lane id=":C_8_0" index="0" speed="72.63" length="6.64" shape="516.65,990.65 516.89,992.76 517.60,993.73 518.78,993.55 520.44,992.22"/>
    </edge>
    <edge id=":C_9" function="internal">
        <lane id=":C_9_0" index="0" speed="56.47" length="12.41" shape="516.65,990.65 517.13,994.02 518.57,996.43 520.98,997.87 524.35,998.35"/>
    </edge>
    <edge id=":C_10" function="internal">
        <lane id=":C_10_0" index="0" speed="82.97" length="14.22" shape="516.65,990.65 516.25,995.46 515.05,998.90 513.05,1000.96 510.25,1001.65"/>
    </edge>
    <edge id=":C_11" function="internal">
        <lane id=":C_11_0" index="0" speed="68.76" length="4.82" shape="516.65,990.65 515.82,991.89 515.00,992.30 514.18,991.89 513.35,990.65"/>
    </edge>
    <edge id=":C_12" function="internal">
        <lane id=":C_12_0" index="0" speed="82.97" length="9.02" shape="510.25,998.35 511.61,997.87 512.57,996.43 513.16,994.02 513.35,990.65"/>
    </edge>
    <edge id=":C_13" function="internal">
        <lane id=":C_13_0" index="0" speed="86.84" length="12.14" shape="510.25,998.35 512.41,997.97 514.83,996.82 517.51,994.90 520.44,992.22"/>
    </edge>
    <edge id=":C_14" function="internal">
        <lane id=":C_14_0" index="0" speed="70.68" length="14.10" shape="510.25,998.35 513.86,998.35 517.30,998.35 520.74,998.35 524.35,998.35"/>
    </edge>
    <edge id=":C_15" function="internal">
        <lane id=":C_15_0" index="0" speed="97.18" length="2.41" shape="510.25,998.35 511.49,999.17 511.90,1000.00"/>
    </edge>
    <edge id=":C_19" function="internal">
        <lane id=":C_19_0" index="0" speed="97.18" length="2.41" shape="511.90,1000.00 511.49,1000.83 510.25,1001.65"/>
    </edge>
    <edge id=":D_0" function="internal">
        <lane id=":D_0_0" index="0" speed="57.33" length="6.64" shape="513.35,509.35 513.11,507.24 512.40,506.27 511.22,506.45 509.56,507.78"/>
    </edge>
    <edge id=":D_1" function="internal">
        <lane id=":D_1_0" index="0" speed="56.27" length="12.41" shape="513.35,509.35 512.87,505.98 511.43,503.57 509.02,502.13 505.65,501.65"/>
    </edge>
    <edge id=":D_2" function="internal">
        <lane id=":D_2_0" index="0" speed="68.76" length="18.69" shape="513.35,509.35 513.35,505.02 513.35,500.00 513.35,494.98 513.35,490.65"/>
    </edge>
    <edge id=":D_3" function="internal">
        <lane id=":D_3_0" index="0" speed="72.63" length="19.02" shape="513.35,509.35 513.79,504.51 515.12,500.05 517.34,495.95 520.44,492.22"/>
    </edge>
    <edge id=":D_4" function="internal">
        <lane id=":D_4_0" index="0" speed="68.76" length="17.73" shape="513.35,509.35 514.04,504.54 516.10,501.10 519.54,499.04 524.35,498.35"/>
    </edge>
    <edge id=":D_5" function="internal">
        <lane id=":D_5_0" index="0" speed="68.76" length="4.82" shape="513.35,509.35 514.18,508.11 515.00,507.70 515.82,508.11 516.65,509.35"/>
    </edge>
    <edge id=":D_6" function="internal">
        <lane id=":D_6_0" index="0" speed="68.76" length="12.41" shape="524.35,501.65 520.98,502.13 518.57,503.57 517.13,505.98 516.65,509.35"/>
    </edge>
    <edge id=":D_7" function="internal">
        <lane id=":D_7_0" index="0" speed="57.33" length="16.43" shape="524.35,501.65 520.17,502.03 516.32,503.18 512.78,505.10 509.56,507.78"/>
    </edge>
    <edge id=":D_8" function="internal">
        <lane id=":D_8_0" index="0" speed="56.27" length="18.69" shape="524.35,501.65 520.02,501.65 515.00,501.65 509.98,501.65 505.65,501.65"/>
    </edge>
    <edge id=":D_9" function="internal">
        <lane id=":D_9_0" index="0" speed="68.76" length="17.73" shape="524.35,501.65 519.54,500.96 516.10,498.90 514.04,495.46 513.35,490.65"/>
    </edge>
    <edge id=":D_10" function="internal">
        <lane id=":D_10_0" index="0" speed="72.63" length="16.51" shape="524.35,501.65 519.10,501.06 516.71,499.29 517.15,496.35 520.44,492.22"/>
    </edge>
    <edge id=":D_11" function="internal">
        <lane id=":D_11_0" index="0" speed="68.76" length="4.82" shape="524.35,501.65 523.11,500.82 522.70,500.00 523.11,499.18 524.35,498.35"/>
    </edge>
    <edge id=":D_12" function="internal">
        <lane id=":D_12_0" index="0" speed="72.63" length="6.64" shape="522.78,494.56 521.45,496.22 521.27,497.40 522.24,498.11 524.35,498.35"/>
    </edge>
    <edge id=":D_13" function="internal">
        <lane id=":D_13_0" index="0" speed="72.63" length="16.43" shape="522.78,494.56 520.10,497.78 518.18,501.32 517.03,505.17 516.65,509.35"/>
    </edge>
    <edge id=":D_14" function="internal">
        <lane id=":D_14_0" index="0" speed="61.19" length="18.69" shape="522.78,494.56 519.72,497.62 516.17,501.17 512.62,504.72 509.56,507.78"/>
    </edge>
    <edge id=":D_15" function="internal">
        <lane id=":D_15_0" index="0" speed="60.13" length="9.25" shape="522.78,494.56 519.05,497.66 515.17,499.76"/>
    </edge>
    <edge id=":D_16" function="internal">
        <lane id=":D_16_0" index="0" speed="72.63" length="7.15" shape="522.78,494.56 518.65,497.85 516.80,498.13"/>
    </edge>
    <edge id=":D_17" function="internal">
        <lane id=":D_17_0" index="0" speed="76.49" length="2.41" shape="522.78,494.56 521.32,494.85 520.44,494.56"/>
    </edge>
    <edge id=":D_36" function="internal">
        <lane id=":D_36_0" index="0" speed="60.13" length="9.77" shape="515.17,499.76 514.95,499.88 510.49,501.21 505.65,501.65"/>
    </edge>
    <edge id=":D_37" function="internal">
        <lane id=":D_37_0" index="0" speed="72.63" length="9.36" shape="516.80,498.13 515.71,498.29 513.94,495.90 513.35,490.65"/>
    </edge>
    <edge id=":D_38" function="internal">
        <lane id=":D_38_0" index="0" speed="76.49" length="2.41" shape="520.44,494.56 520.15,493.68 520.44,492.22"/>
    </edge>
    <edge id=":D_18" function="internal">
        <lane id=":D_18_0" index="0" speed="72.63" length="6.64" shape="516.65,490.65 516.89,492.76 517.60,493.73 518.78,493.55 520.44,492.22"/>
    </edge>
    <edge id=":D_19" function="internal">
        <lane id=":D_19_0" index="0" speed="68.76" length="12.41" shape="516.65,490.65 517.13,494.02 518.57,496.43 520.98,497.87 524.35,498.35"/>
    </edge>
    <edge id=":D_20" function="internal">
        <lane id=":D_20_0" index="0" speed="68.76" length="18.69" shape="516.65,490.65 516.65,494.98 516.65,500.00 516.65,505.02 516.65,509.35"/>
    </edge>
    <edge id=":D_21" function="internal">
        <lane id=":D_21_0" index="0" speed="57.33" length="19.02" shape="516.65,490.65 516.21,495.49 514.88,499.95 512.66,504.05 509.56,507.78"/>
    </edge>
    <edge id=":D_22" function="internal">
        <lane id=":D_22_0" index="0" speed="56.27" length="17.73" shape="516.65,490.65 515.96,495.46 513.90,498.90 510.46,500.96 505.65,501.65"/>
    </edge>
    <edge id=":D_23" function="internal">
        <lane id=":D_23_0" index="0" speed="68.76" length="4.82" shape="516.65,490.65 515.82,491.89 515.00,492.30 514.18,491.89 513.35,490.65"/>
    </edge>
    <edge id=":D_24" function="internal">
        <lane id=":D_24_0" index="0" speed="56.27" length="12.41" shape="505.65,498.35 509.02,497.87 511.43,496.43 512.87,494.02 513.35,490.65"/>
    </edge>
    <edge id=":D_25" function="internal">
        <lane id=":D_25_0" index="0" speed="60.13" length="16.43" shape="505.65,498.35 509.83,497.97 513.68,496.82 517.22,494.90 520.44,492.22"/>
    </edge>
    <edge id=":D_26" function="internal">
        <lane id=":D_26_0" index="0" speed="56.27" length="18.69" shape="505.65,498.35 509.98,498.35 515.00,498.35 520.02,498.35 524.35,498.35"/>
    </edge>
    <edge id=":D_27" function="internal">
        <lane id=":D_27_0" index="0" speed="56.27" length="17.73" shape="505.65,498.35 510.46,499.04 513.90,501.10 515.96,504.54 516.65,509.35"/>
    </edge>
    <edge id=":D_28" function="internal">
        <lane id=":D_28_0" index="0" speed="44.83" length="16.51" shape="505.65,498.35 510.90,498.94 513.29,500.71 512.85,503.65 509.56,507.78"/>
    </edge>
    <edge id=":D_29" function="internal">
        <lane id=":D_29_0" index="0" speed="43.77" length="4.82" shape="505.65,498.35 506.89,499.18 507.30,500.00 506.89,500.82 505.65,501.65"/>
    </edge>
    <edge id=":D_30" function="internal">
        <lane id=":D_30_0" index="0" speed="44.83" length="6.64" shape="507.22,505.44 508.55,503.78 508.73,502.60 507.76,501.89 505.65,501.65"/>
    </edge>
    <edge id=":D_31" function="internal">
        <lane id=":D_31_0" index="0" speed="57.33" length="16.43" shape="507.22,505.44 509.90,502.22 511.82,498.68 512.97,494.83 513.35,490.65"/>
    </edge>
    <edge id=":D_32" function="internal">
        <lane id=":D_32_0" index="0" speed="61.19" length="18.69" shape="507.22,505.44 510.28,502.38 513.83,498.83 517.38,495.28 520.44,492.22"/>
    </edge>
    <edge id=":D_33" function="internal">
        <lane id=":D_33_0" index="0" speed="57.33" length="9.25" shape="507.22,505.44 510.95,502.34 514.83,500.24"/>
    </edge>
    <edge id=":D_34" function="internal">
        <lane id=":D_34_0" index="0" speed="57.33" length="7.15" shape="507.22,505.44 511.35,502.15 513.20,501.87"/>
    </edge>
    <edge id=":D_35" function="internal">
        <lane id=":D_35_0" index="0" speed="45.89" length="2.41" shape="507.22,505.44 508.68,505.15 509.56,505.44"/>
    </edge>
    <edge id=":D_39" function="internal">
        <lane id=":D_39_0" index="0" speed="57.33" length="9.77" shape="514.83,500.24 515.05,500.12 519.51,498.79 524.35,498.35"/>
    </edge>
    <edge id=":D_40" function="internal">
        <lane id=":D_40_0" index="0" speed="57.33" length="9.36" shape="513.20,501.87 514.29,501.71 516.06,504.10 516.65,509.35"/>
    </edge>
    <edge id=":D_41" function="internal">
        <lane id=":D_41_0" index="0" speed="45.89" length="2.41" shape="509.56,505.44 509.85,506.32 509.56,507.78"/>
    </edge>
    <edge id=":E_0" function="internal">
        <lane id=":E_0_0" index="0" speed="65.67" length="6.64" shape="513.35,9.35 513.11,7.24 512.40,6.27 511.22,6.45 509.56,7.78"/>
    </edge>
    <edge id=":E_1" function="internal">
        <lane id=":E_1_0" index="0" speed="69.09" length="14.22" shape="513.35,9.35 513.75,4.54 514.95,1.10 516.95,-0.96 519.75,-1.65"/>
    </edge>
    <edge id=":E_2" function="internal">
        <lane id=":E_2_0" index="0" speed="68.76" length="4.82" shape="513.35,9.35 514.18,8.11 515.00,7.70 515.82,8.11 516.65,9.35"/>
    </edge>
    <edge id=":E_3" function="internal">
        <lane id=":E_3_0" index="0" speed="69.09" length="9.02" shape="519.75,1.65 518.39,2.13 517.43,3.57 516.84,5.98 516.65,9.35"/>
    </edge>
    <edge id=":E_4" function="internal">
        <lane id=":E_4_0" index="0" speed="66.00" length="12.14" shape="519.75,1.65 517.59,2.03 515.17,3.18 512.49,5.10 509.56,7.78"/>
    </edge>
    <edge id=":E_5" function="internal">
        <lane id=":E_5_0" index="0" speed="69.41" length="4.82" shape="519.75,1.65 518.51,0.83 518.10,0.00 518.51,-0.83 519.75,-1.65"/>
    </edge>
    <edge id=":E_6" function="internal">
        <lane id=":E_6_0" index="0" speed="66.00" length="14.72" shape="507.22,5.44 510.67,2.34 513.90,0.12 516.93,-1.21 519.75,-1.65"/>
    </edge>
    <edge id=":E_7" function="internal">
        <lane id=":E_7_0" index="0" speed="65.67" length="16.51" shape="507.22,5.44 511.35,2.15 514.29,1.71 516.06,4.10 516.65,9.35"/>
    </edge>
    <edge id=":E_8" function="internal">
        <lane id=":E_8_0" index="0" speed="62.58" length="4.82" shape="507.22,5.44 508.68,5.15 509.56,5.44 509.85,6.32 509.56,7.78"/>
    </edge>
    <edge id=":F_0" function="internal">
        <lane id=":F_0_0" index="0" speed="40.95" length="9.50" shape="1019.75,1001.65 1010.25,1001.65"/>
    </edge>
    <edge id=":F_1" function="internal">
        <lane id=":F_1_0" index="0" speed="45.86" length="10.32" shape="1019.75,1001.65 1016.95,1001.25 1014.95,1000.05 1013.75,998.05 1013.35,995.25"/>
    </edge>
    <edge id=":F_2" function="internal">
        <lane id=":F_2_0" index="0" speed="37.73" length="4.82" shape="1019.75,1001.65 1018.51,1000.83 1018.10,1000.00 1018.51,999.17 1019.75,998.35"/>
    </edge>
    <edge id=":F_3" function="internal">
        <lane id=":F_3_0" index="0" speed="45.86" length="5.00" shape="1016.65,995.25 1016.84,996.61 1017.43,997.57 1018.39,998.16 1019.75,998.35"/>
    </edge>
    <edge id=":F_4" function="internal">
        <lane id=":F_4_0" index="0" speed="49.08" length="10.32" shape="1016.65,995.25 1016.25,998.05 1015.05,1000.05 1013.05,1001.25 1010.25,1001.65"/>
    </edge>
    <edge id=":F_5" function="internal">
        <lane id=":F_5_0" index="0" speed="53.99" length="4.82" shape="1016.65,995.25 1015.83,996.49 1015.00,996.90 1014.18,996.49 1013.35,995.25"/>
    </edge>
    <edge id=":F_6" function="internal">
        <lane id=":F_6_0" index="0" speed="49.08" length="5.00" shape="1010.25,998.35 1011.61,998.16 1012.57,997.58 1013.16,996.61 1013.35,995.25"/>
    </edge>
    <edge id=":F_7" function="internal">
        <lane id=":F_7_0" index="0" speed="40.95" length="9.50" shape="1010.25,998.35 1019.75,998.35"/>
    </edge>
    <edge id=":F_8" function="internal">
        <lane id=":F_8_0" index="0" speed="44.17" length="4.82" shape="1010.25,998.35 1011.49,999.17 1011.90,1000.00 1011.49,1000.83 1010.25,1001.65"/>
    </edge>
    <edge id=":G_0" function="internal">
        <lane id=":G_0_0" index="0" speed="58.28" length="6.64" shape="1013.35,509.35 1013.11,507.24 1012.40,506.27 1011.22,506.45 1009.56,507.78"/>
    </edge>
    <edge id=":G_1" function="internal">
        <lane id=":G_1_0" index="0" speed="61.38" length="12.41" shape="1013.35,509.35 1012.87,505.98 1011.43,503.57 1009.02,502.13 1005.65,501.65"/>
    </edge>
    <edge id=":G_2" function="internal">
        <lane id=":G_2_0" index="0" speed="53.73" length="18.69" shape="1013.35,509.35 1013.35,505.02 1013.35,500.00 1013.35,494.98 1013.35,490.65"/>
    </edge>
    <edge id=":G_3" function="internal">
        <lane id=":G_3_0" index="0" speed="53.47" length="19.02" shape="1013.35,509.35 1013.79,504.51 1015.12,500.05 1017.34,495.95 1020.44,492.22"/>
    </edge>
    <edge id=":G_4" function="internal">
        <lane id=":G_4_0" index="0" speed="107.98" length="17.73" shape="1013.35,509.35 1014.04,504.54 1016.10,501.10 1019.54,499.04 1024.35,498.35"/>
    </edge>
    <edge id=":G_5" function="internal">
        <lane id=":G_5_0" index="0" speed="53.99" length="4.82" shape="1013.35,509.35 1014.18,508.11 1015.00,507.70 1015.83,508.11 1016.65,509.35"/>
    </edge>
    <edge id=":G_6" function="internal">
        <lane id=":G_6_0" index="0" speed="107.98" length="12.41" shape="1024.35,501.65 1020.98,502.13 1018.57,503.57 1017.13,505.98 1016.65,509.35"/>
    </edge>
    <edge id=":G_7" function="internal">
        <lane id=":G_7_0" index="0" speed="112.28" length="16.43" shape="1024.35,501.65 1020.17,502.03 1016.32,503.18 1012.78,505.10 1009.56,507.78"/>
    </edge>
    <edge id=":G_8" function="internal">
        <lane id=":G_8_0" index="0" speed="115.37" length="18.69" shape="1024.35,501.65 1020.02,501.65 1015.00,501.65 1009.98,501.65 1005.65,501.65"/>
    </edge>
    <edge id=":G_9" function="internal">
        <lane id=":G_9_0" index="0" speed="107.72" length="6.83" shape="1024.35,501.65 1019.54,500.96 1017.85,499.95"/>
    </edge>
    <edge id=":G_10" function="internal">
        <lane id=":G_10_0" index="0" speed="107.46" length="7.15" shape="1024.35,501.65 1019.10,501.06 1017.60,499.95"/>
    </edge>
    <edge id=":G_11" function="internal">
        <lane id=":G_11_0" index="0" speed="161.97" length="2.41" shape="1024.35,501.65 1023.11,500.82 1022.70,500.00"/>
    </edge>
    <edge id=":G_36" function="internal">
        <lane id=":G_36_0" index="0" speed="107.72" length="10.91" shape="1017.85,499.95 1016.10,498.90 1014.04,495.46 1013.35,490.65"/>
    </edge>
    <edge id=":G_37" function="internal">
        <lane id=":G_37_0" index="0" speed="107.46" length="9.36" shape="1017.60,499.95 1016.71,499.29 1017.15,496.35 1020.44,492.22"/>
    </edge>
    <edge id=":G_38" function="internal">
        <lane id=":G_38_0" index="0" speed="161.97" length="2.41" shape="1022.70,500.00 1023.11,499.18 1024.35,498.35"/>
    </edge>
    <edge id=":G_12" function="internal">
        <lane id=":G_12_0" index="0" speed="112.28" length="6.64" shape="1022.78,494.56 1021.45,496.22 1021.27,497.40 1022.24,498.11 1024.35,498.35"/>
    </edge>
    <edge id=":G_13" function="internal">
        <lane id=":G_13_0" index="0" speed="58.28" length="16.43" shape="1022.78,494.56 1020.10,497.78 1018.18,501.32 1017.03,505.17 1016.65,509.35"/>
    </edge>
    <edge id=":G_14" function="internal">
        <lane id=":G_14_0" index="0" speed="62.58" length="18.69" shape="1022.78,494.56 1019.72,497.62 1016.17,501.17 1012.62,504.72 1009.56,507.78"/>
    </edge>
    <edge id=":G_15" function="internal">
        <lane id=":G_15_0" index="0" speed="65.67" length="19.02" shape="1022.78,494.56 1019.05,497.66 1014.95,499.88 1010.49,501.21 1005.65,501.65"/>
    </edge>
    <edge id=":G_16" function="internal">
        <lane id=":G_16_0" index="0" speed="58.03" length="16.51" shape="1022.78,494.56 1018.65,497.85 1015.71,498.29 1013.94,495.90 1013.35,490.65"/>
    </edge>
    <edge id=":G_17" function="internal">
        <lane id=":G_17_0" index="0" speed="57.77" length="4.82" shape="1022.78,494.56 1021.32,494.85 1020.44,494.56 1020.15,493.68 1020.44,492.22"/>
    </edge>
    <edge id=":G_18" function="internal">
        <lane id=":G_18_0" index="0" speed="53.22" length="6.64" shape="1016.65,490.65 1016.89,492.76 1017.60,493.73 1018.78,493.55 1020.44,492.22"/>
    </edge>
    <edge id=":G_19" function="internal">
        <lane id=":G_19_0" index="0" speed="107.72" length="12.41" shape="1016.65,490.65 1017.13,494.02 1018.57,496.43 1020.98,497.87 1024.35,498.35"/>
    </edge>
    <edge id=":G_20" function="internal">
        <lane id=":G_20_0" index="0" speed="53.73" length="18.69" shape="1016.65,490.65 1016.65,494.98 1016.65,500.00 1016.65,505.02 1016.65,509.35"/>
    </edge>
    <edge id=":G_21" function="internal">
        <lane id=":G_21_0" index="0" speed="58.03" length="19.02" shape="1016.65,490.65 1016.21,495.49 1014.88,499.95 1012.66,504.05 1009.56,507.78"/>
    </edge>
    <edge id=":G_22" function="internal">
        <lane id=":G_22_0" index="0" speed="61.12" length="17.73" shape="1016.65,490.65 1015.96,495.46 1013.90,498.90 1010.46,500.96 1005.65,501.65"/>
    </edge>