<nodes>
  <node id="A" x="0.0" y="0.0" />
  <node id="B" x="0.0" y="-500.0" />
  <node id="C" x="+500.0" y="0.0" />
  <node id="D" x="+500.0" y="-500.0" />
  <node id="E" x="+500.0" y="-1000.0" />
  <node id="F" x="+1000.0" y="0.0" />
  <node id="G" x="+1000.0" y="-500.0" />
  <node id="H" x="+1000.0" y="-1000.0" />
  <node id="I" x="+1500.0" y="0.0" />
  <node id="J" x="+1500.0" y="-500.0" />
  <node id="K" x="+1500.0" y="-1000.0" />
  <node id="L" x="+2000.0" y="0.0" />
  <node id="M" x="+2000.0" y="-1000.0" />
  <node id="0A" x="-15.0" y="0.0" />
  <node id="0B" x="-15.0" y="-500.0" />
  <node id="0L" x="+2015.00" y="0.0" />
  <node id="0M" x="+2015.00" y="-1000.0" /> 
</nodes>