<?xml version="1.0" encoding="UTF-8"?>

<!-- generated on Sun Feb  5 11:03:13 2017 by SUMO netconvert Version 0.27.1
<?xml version="1.0" encoding="UTF-8"?>

<configuration xmlns:xsi="http://www.w3.org/2001/XMLSchema-instance" xsi:noNamespaceSchemaLocation="http://sumo.dlr.de/xsd/netconvertConfiguration.xsd">

    <input>
        <type-files value="netconvert.osm.types.xml"/>
        <osm-files value="../osm/madrid_retiro.osm"/>
    </input>

    <output>
        <output-file value="madrid_retiro.net.xml"/>
        <plain-output-prefix value="madrid_retiro"/>
        <output.street-names value="true"/>
        <output.original-names value="true"/>
    </output>

    <projection>
        <proj.utm value="true"/>
        <proj.plain-geo value="true"/>
    </projection>

    <edge_removal>
        <remove-edges.by-type value="highway.bridleway,highway.cycleway,highway.footway,highway.ford,highway.path,highway.pedestrian,highway.service,highway.stairs,highway.step,highway.steps,highway.track,railway.light_rail,railway.preserved,railway.rail,railway.subway,railway.tram"/>
    </edge_removal>

</configuration>
-->

<connections version="0.27" xmlns:xsi="http://www.w3.org/2001/XMLSchema-instance" xsi:noNamespaceSchemaLocation="http://sumo.dlr.de/xsd/connections_file.xsd">
    <connection from="-109462886" to="-109462900#1" fromLane="0" toLane="0"/>

    <connection from="-109462887#0" to="4526341#11" fromLane="0" toLane="0"/>
    <connection from="-109462887#0" to="4526341#11" fromLane="0" toLane="1"/>
    <connection from="-109462887#0" to="-109462899#1" fromLane="0" toLane="0"/>

    <connection from="-109462887#1" to="-109462887#0" fromLane="0" toLane="0"/>
    <connection from="-109462887#1" to="109462887#1" fromLane="0" toLane="0"/>

    <connection from="-109462894#0" to="4261173#0" fromLane="0" toLane="1"/>
    <connection from="-109462894#0" to="109462894#0" fromLane="0" toLane="0"/>

    <connection from="-109462894#1" to="-109462894#0" fromLane="0" toLane="0"/>
    <connection from="-109462894#1" to="109462894#1" fromLane="0" toLane="0"/>

    <connection from="-109462894#2" to="-109462894#1" fromLane="0" toLane="0"/>
    <connection from="-109462894#2" to="109462894#2" fromLane="0" toLane="0"/>

    <connection from="-109462895" to="-109462887#1" fromLane="0" toLane="0"/>

    <connection from="-109462899#0" to="-198644581#1" fromLane="0" toLane="0"/>

    <connection from="-109462899#1" to="-109462899#0" fromLane="0" toLane="0"/>
    <connection from="-109462899#1" to="109462899#1" fromLane="0" toLane="0"/>

    <connection from="-109462900#0" to="109462882" fromLane="0" toLane="0"/>
    <connection from="-109462900#0" to="-109462895" fromLane="0" toLane="0"/>

    <connection from="-109462900#1" to="-109462900#0" fromLane="0" toLane="0"/>
    <connection from="-109462900#1" to="109462900#1" fromLane="0" toLane="0"/>

    <connection from="-137519639" to="137519645" fromLane="0" toLane="0"/>
    <connection from="-137519639" to="-109462886" fromLane="0" toLane="0"/>
    <connection from="-137519639" to="137519639" fromLane="0" toLane="0"/>

    <connection from="-198644581#0" to="109462875" fromLane="0" toLane="0"/>
    <connection from="-198644581#0" to="-109462894#2" fromLane="0" toLane="0"/>
    <connection from="-198644581#0" to="198644581#0" fromLane="0" toLane="0"/>

    <connection from="-198644581#1" to="-198644581#0" fromLane="0" toLane="0"/>
    <connection from="-198644581#1" to="198644581#1" fromLane="0" toLane="0"/>

    <connection from="-44572472" to="44572472" fromLane="1" toLane="1"/>

    <connection from="-44572474#0" to="-4688562#2" fromLane="0" toLane="0"/>
    <connection from="-44572474#0" to="-44572472" fromLane="0" toLane="0"/>
    <connection from="-44572474#0" to="-44572472" fromLane="1" toLane="1"/>

    <connection from="-44572474#1" to="-44572474#0" fromLane="0" toLane="0"/>
    <connection from="-44572474#1" to="-44572474#0" fromLane="1" toLane="1"/>
    <connection from="-44572474#1" to="44572474#1" fromLane="1" toLane="1"/>

    <connection from="-44572475#0" to="44572474#0" fromLane="0" toLane="0"/>
    <connection from="-44572475#0" to="44572474#0" fromLane="1" toLane="1"/>
    <connection from="-44572475#0" to="-4688562#2" fromLane="1" toLane="1"/>

    <connection from="-44572475#1" to="-44572475#0" fromLane="0" toLane="0"/>
    <connection from="-44572475#1" to="-44572475#0" fromLane="1" toLane="1"/>
    <connection from="-44572475#1" to="44572475#1" fromLane="1" toLane="1"/>

    <connection from="-44572475#2" to="-44572475#1" fromLane="0" toLane="0"/>
    <connection from="-44572475#2" to="-44572475#1" fromLane="1" toLane="1"/>
    <connection from="-44572475#2" to="44572475#2" fromLane="1" toLane="1"/>

    <connection from="-44737270" to="44737269" fromLane="0" toLane="1"/>
    <connection from="-44737270" to="44737269" fromLane="0" toLane="2"/>
    <connection from="-44737270" to="44737270" fromLane="0" toLane="0"/>

    <connection from="-4688562#0" to="4078618#0" fromLane="0" toLane="0"/>
    <connection from="-4688562#0" to="4078618#0" fromLane="1" toLane="1"/>
    <connection from="-4688562#0" to="-4812341" fromLane="1" toLane="0"/>
    <connection from="-4688562#0" to="-4812341" fromLane="1" toLane="1"/>

    <connection from="-4688562#1" to="-4688562#0" fromLane="0" toLane="0"/>
    <connection from="-4688562#1" to="-4688562#0" fromLane="1" toLane="1"/>
    <connection from="-4688562#1" to="4688562#1" fromLane="1" toLane="1"/>

    <connection from="-4688562#2" to="-4688562#1" fromLane="0" toLane="0"/>
    <connection from="-4688562#2" to="-4688562#1" fromLane="1" toLane="1"/>
    <connection from="-4688562#2" to="4688562#2" fromLane="1" toLane="1"/>

    <connection from="-4812341" to="185181407#0" fromLane="0" toLane="1"/>
    <connection from="-4812341" to="185181407#0" fromLane="1" toLane="2"/>

    <connection from="-7972772#0" to="4353021#8" fromLane="0" toLane="0"/>

    <connection from="-7972772#1" to="-7972772#0" fromLane="0" toLane="0"/>

    <connection from="104864841" to="29975021#0" fromLane="0" toLane="0"/>

    <connection from="109462886" to="137519639" fromLane="0" toLane="0"/>

    <connection from="109462887#0" to="109462887#1" fromLane="0" toLane="0"/>
    <connection from="109462887#0" to="-109462887#0" fromLane="0" toLane="0"/>

    <connection from="109462887#1" to="109462891#0" fromLane="0" toLane="0"/>
    <connection from="109462887#1" to="109462895" fromLane="0" toLane="0"/>
    <connection from="109462887#1" to="-109462887#1" fromLane="0" toLane="0"/>

    <connection from="109462891#0" to="109462891#1" fromLane="0" toLane="0"/>

    <connection from="109462891#1" to="109462891#2" fromLane="0" toLane="0"/>
    <connection from="109462891#1" to="23573546#10" fromLane="0" toLane="0"/>

    <connection from="109462891#2" to="109462891#3" fromLane="0" toLane="0"/>

    <connection from="109462891#3" to="4353021#1" fromLane="0" toLane="0"/>
    <connection from="109462891#3" to="109462891#4" fromLane="0" toLane="0"/>

    <connection from="109462891#4" to="29975021#0" fromLane="0" toLane="0"/>

    <connection from="109462894#0" to="109462894#1" fromLane="0" toLane="0"/>
    <connection from="109462894#0" to="-109462894#0" fromLane="0" toLane="0"/>

    <connection from="109462894#1" to="109462894#2" fromLane="0" toLane="0"/>
    <connection from="109462894#1" to="-109462894#1" fromLane="0" toLane="0"/>

    <connection from="109462894#2" to="198644581#0" fromLane="0" toLane="0"/>

    <connection from="109462895" to="109462900#0" fromLane="0" toLane="0"/>

    <connection from="109462896#0" to="109462896#1" fromLane="0" toLane="0"/>

    <connection from="109462896#1" to="109462896#2" fromLane="0" toLane="0"/>
    <connection from="109462896#1" to="23573546#6" fromLane="0" toLane="0"/>

    <connection from="109462896#2" to="109462896#3" fromLane="0" toLane="0"/>

    <connection from="109462896#3" to="4353021#4" fromLane="0" toLane="0"/>
    <connection from="109462896#3" to="109462896#4" fromLane="0" toLane="0"/>

    <connection from="109462896#4" to="109462896#5" fromLane="0" toLane="0"/>
    <connection from="109462896#4" to="4353020#4" fromLane="0" toLane="0"/>

    <connection from="109462896#5" to="109462896#6" fromLane="0" toLane="0"/>

    <connection from="109462896#6" to="29975021#4" fromLane="0" toLane="0"/>

    <connection from="109462899#0" to="109462899#1" fromLane="0" toLane="0"/>
    <connection from="109462899#0" to="-109462899#0" fromLane="0" toLane="0"/>

    <connection from="109462899#1" to="109462887#0" fromLane="0" toLane="0"/>

    <connection from="109462900#0" to="109462900#1" fromLane="0" toLane="0"/>
    <connection from="109462900#0" to="-109462900#0" fromLane="0" toLane="0"/>

    <connection from="109462900#1" to="137216215#0" fromLane="0" toLane="0"/>
    <connection from="109462900#1" to="109462886" fromLane="0" toLane="0"/>
    <connection from="109462900#1" to="-109462900#1" fromLane="0" toLane="0"/>

    <connection from="112538800#0" to="112538800#1" fromLane="0" toLane="0"/>

    <connection from="112538800#1" to="112538800#2" fromLane="0" toLane="0"/>

    <connection from="112538800#2" to="112538800#3" fromLane="0" toLane="0"/>
    <connection from="112538800#2" to="23573546#0" fromLane="0" toLane="0"/>

    <connection from="112538800#3" to="112538800#4" fromLane="0" toLane="0"/>

    <connection from="112538800#4" to="4353021#7" fromLane="0" toLane="0"/>
    <connection from="112538800#4" to="112538800#5" fromLane="0" toLane="0"/>

    <connection from="112538800#5" to="7972777" fromLane="0" toLane="0"/>
    <connection from="112538800#5" to="112538800#6" fromLane="0" toLane="0"/>

    <connection from="112538800#6" to="112538800#7" fromLane="0" toLane="0"/>
    <connection from="112538800#6" to="4353020#0" fromLane="0" toLane="0"/>

    <connection from="112538800#7" to="112538800#8" fromLane="0" toLane="0"/>

    <connection from="112538800#8" to="112538800#9" fromLane="0" toLane="0"/>
    <connection from="112538800#8" to="4353019#0" fromLane="0" toLane="0"/>

    <connection from="112538800#9" to="112538800#10" fromLane="0" toLane="0"/>

    <connection from="112538811#0" to="112538811#1" fromLane="0" toLane="0"/>
    <connection from="112538811#0" to="112538811#1" fromLane="1" toLane="1"/>
    <connection from="112538811#0" to="112538811#1" fromLane="2" toLane="2"/>

    <connection from="112538811#1" to="44508936#0" fromLane="0" toLane="0"/>
    <connection from="112538811#1" to="44508936#0" fromLane="1" toLane="1"/>

    <connection from="112538817#0" to="112538817#1" fromLane="0" toLane="0"/>
    <connection from="112538817#0" to="112538817#1" fromLane="1" toLane="1"/>

    <connection from="112538817#1" to="112538817#2" fromLane="0" toLane="0"/>
    <connection from="112538817#1" to="112538817#2" fromLane="1" toLane="1"/>

    <connection from="112538817#2" to="112538817#3" fromLane="0" toLane="0"/>
    <connection from="112538817#2" to="112538817#3" fromLane="1" toLane="1"/>

    <connection from="112538817#3" to="44737269" fromLane="0" toLane="0"/>
    <connection from="112538817#3" to="44737269" fromLane="1" toLane="1"/>
    <connection from="112538817#3" to="44737270" fromLane="1" toLane="0"/>

    <connection from="131450470" to="44508936#0" fromLane="0" toLane="0"/>
    <connection from="131450470" to="44508936#0" fromLane="1" toLane="1"/>

    <connection from="131451859" to="4261174" fromLane="0" toLane="0"/>
    <connection from="131451859" to="334731366" fromLane="0" toLane="0"/>
    <connection from="131451859" to="334731366" fromLane="1" toLane="1"/>
    <connection from="131451859" to="334731366" fromLane="2" toLane="2"/>

    <connection from="137206573" to="137216216#0" fromLane="0" toLane="0"/>
    <connection from="137206573" to="137216216#0" fromLane="1" toLane="1"/>

    <connection from="137216215#0" to="137216215#1" fromLane="0" toLane="0"/>
    <connection from="137216215#0" to="137216215#1" fromLane="1" toLane="1"/>

    <connection from="137216215#1" to="44572476" fromLane="0" toLane="0"/>
    <connection from="137216215#1" to="44572476" fromLane="1" toLane="1"/>

    <connection from="137216216#0" to="137216216#1" fromLane="0" toLane="0"/>
    <connection from="137216216#0" to="137216216#1" fromLane="1" toLane="1"/>

    <connection from="137216216#1" to="137216216#2" fromLane="0" toLane="0"/>
    <connection from="137216216#1" to="137216216#2" fromLane="1" toLane="1"/>

    <connection from="137216216#2" to="137216216#3" fromLane="0" toLane="0"/>
    <connection from="137216216#2" to="137216216#3" fromLane="1" toLane="1"/>

    <connection from="137216216#3" to="137519639" fromLane="0" toLane="0"/>
    <connection from="137216216#3" to="137519645" fromLane="0" toLane="0"/>
    <connection from="137216216#3" to="137519645" fromLane="1" toLane="1"/>

    <connection from="137519639" to="-137519639" fromLane="0" toLane="0"/>

    <connection from="14567301" to="-198644581#1" fromLane="0" toLane="0"/>
    <connection from="14567301" to="109462896#0" fromLane="0" toLane="0"/>
    <connection from="14567301" to="109462899#0" fromLane="0" toLane="0"/>

    <connection from="14567386#0" to="14567386#1" fromLane="0" toLane="0"/>

    <connection from="14567386#1" to="4353019#4" fromLane="0" toLane="0"/>
    <connection from="14567386#1" to="14567386#2" fromLane="0" toLane="0"/>

    <connection from="14567386#2" to="14567386#3" fromLane="0" toLane="0"/>

    <connection from="14567386#3" to="14567386#4" fromLane="0" toLane="0"/>

    <connection from="14567386#4" to="4353020#3" fromLane="0" toLane="0"/>
    <connection from="14567386#4" to="14567386#5" fromLane="0" toLane="0"/>

    <connection from="14567386#5" to="14567386#6" fromLane="0" toLane="0"/>
    <connection from="14567386#5" to="4353021#5" fromLane="0" toLane="0"/>

    <connection from="14567386#6" to="23573546#3" fromLane="0" toLane="0"/>
    <connection from="14567386#6" to="14567386#7" fromLane="0" toLane="0"/>

    <connection from="14567386#7" to="14567386#8" fromLane="0" toLane="0"/>

    <connection from="14567386#8" to="14567386#9" fromLane="0" toLane="0"/>

    <connection from="14567386#9" to="198644581#0" fromLane="0" toLane="0"/>
    <connection from="14567386#9" to="109462875" fromLane="0" toLane="0"/>
    <connection from="14567386#9" to="-109462894#2" fromLane="0" toLane="0"/>

    <connection from="164369266#0" to="164369266#1" fromLane="0" toLane="0"/>
    <connection from="164369266#0" to="164369266#1" fromLane="1" toLane="1"/>
    <connection from="164369266#0" to="164369266#1" fromLane="2" toLane="2"/>

    <connection from="164369266#1" to="112538817#0" fromLane="0" toLane="0"/>
    <connection from="164369266#1" to="112538817#0" fromLane="1" toLane="1"/>

    <connection from="164369269" to="4291303#0" fromLane="0" toLane="0"/>
    <connection from="164369269" to="4334163#0" fromLane="0" toLane="0"/>

    <connection from="179267058" to="321307759" fromLane="0" toLane="0"/>
    <connection from="179267058" to="43407376" fromLane="1" toLane="1"/>

    <connection from="179267061#0" to="179267061#1" fromLane="0" toLane="0"/>
    <connection from="179267061#0" to="179267061#1" fromLane="1" toLane="1"/>

    <connection from="179267061#1" to="-44572474#1" fromLane="0" toLane="0"/>
    <connection from="179267061#1" to="-44572474#1" fromLane="1" toLane="1"/>

    <connection from="185181407#0" to="185181407#1" fromLane="0" toLane="0"/>
    <connection from="185181407#0" to="185181407#1" fromLane="1" toLane="1"/>
    <connection from="185181407#0" to="185181407#1" fromLane="2" toLane="2"/>

    <connection from="198644581#0" to="198644581#1" fromLane="0" toLane="0"/>
    <connection from="198644581#0" to="-198644581#0" fromLane="0" toLane="0"/>

    <connection from="198644581#1" to="109462896#0" fromLane="0" toLane="0"/>
    <connection from="198644581#1" to="109462899#0" fromLane="0" toLane="0"/>
    <connection from="198644581#1" to="-198644581#1" fromLane="0" toLane="0"/>

    <connection from="229826287" to="4526390#0" fromLane="0" toLane="0"/>
    <connection from="229826287" to="4353021#0" fromLane="0" toLane="0"/>

    <connection from="23573143" to="-109462887#1" fromLane="0" toLane="0"/>
    <connection from="23573143" to="109462891#0" fromLane="0" toLane="0"/>
    <connection from="23573143" to="109462895" fromLane="0" toLane="0"/>

    <connection from="23573546#0" to="23573546#1" fromLane="0" toLane="0"/>

    <connection from="23573546#1" to="23573546#2" fromLane="0" toLane="0"/>

    <connection from="23573546#10" to="23573546#11" fromLane="0" toLane="0"/>
    <connection from="23573546#10" to="4526390#1" fromLane="0" toLane="0"/>

    <connection from="23573546#11" to="23573546#12" fromLane="0" toLane="0"/>

    <connection from="23573546#12" to="-44572475#2" fromLane="0" toLane="0"/>
    <connection from="23573546#12" to="44572477" fromLane="0" toLane="0"/>
    <connection from="23573546#12" to="137206573" fromLane="0" toLane="1"/>

    <connection from="23573546#2" to="23573546#3" fromLane="0" toLane="0"/>
    <connection from="23573546#2" to="14567386#7" fromLane="0" toLane="0"/>

    <connection from="23573546#3" to="23573546#4" fromLane="0" toLane="0"/>

    <connection from="23573546#4" to="23573546#5" fromLane="0" toLane="0"/>

    <connection from="23573546#5" to="109462896#2" fromLane="0" toLane="0"/>
    <connection from="23573546#5" to="23573546#6" fromLane="0" toLane="0"/>

    <connection from="23573546#6" to="23573546#7" fromLane="0" toLane="0"/>

    <connection from="23573546#7" to="23573546#8" fromLane="0" toLane="0"/>
    <connection from="23573546#7" to="4526341#9" fromLane="0" toLane="2"/>
    <connection from="23573546#7" to="4526341#9" fromLane="0" toLane="3"/>

    <connection from="23573546#8" to="23573546#9" fromLane="0" toLane="0"/>

    <connection from="23573546#9" to="109462891#2" fromLane="0" toLane="0"/>
    <connection from="23573546#9" to="23573546#10" fromLane="0" toLane="0"/>

    <connection from="252387586#0" to="252387586#1" fromLane="0" toLane="0"/>

    <connection from="252387586#1" to="7972771#0" fromLane="0" toLane="0"/>
    <connection from="252387586#1" to="252387586#2" fromLane="0" toLane="0"/>

    <connection from="252387586#2" to="252387586#3" fromLane="0" toLane="0"/>

    <connection from="252387586#3" to="44737268#0" fromLane="0" toLane="0"/>
    <connection from="252387586#3" to="4353021#10" fromLane="0" toLane="0"/>

    <connection from="29974989#0" to="104864841" fromLane="0" toLane="0"/>
    <connection from="29974989#0" to="29974989#1" fromLane="0" toLane="0"/>
    <connection from="29974989#0" to="29974989#1" fromLane="1" toLane="1"/>

    <connection from="29974989#1" to="321307759" fromLane="0" toLane="0"/>
    <connection from="29974989#1" to="43407376" fromLane="0" toLane="0"/>
    <connection from="29974989#1" to="43407376" fromLane="1" toLane="1"/>

    <connection from="29975003" to="29974988" fromLane="0" toLane="0"/>
    <connection from="29975003" to="29974988" fromLane="1" toLane="1"/>

    <connection from="29975021#0" to="321307751" fromLane="0" toLane="0"/>
    <connection from="29975021#0" to="29975021#1" fromLane="0" toLane="0"/>

    <connection from="29975021#1" to="4526341#2" fromLane="0" toLane="0"/>
    <connection from="29975021#1" to="4526341#2" fromLane="0" toLane="1"/>
    <connection from="29975021#1" to="29975021#2" fromLane="0" toLane="0"/>

    <connection from="29975021#2" to="29975021#3" fromLane="0" toLane="0"/>

    <connection from="29975021#3" to="29975021#4" fromLane="0" toLane="0"/>

    <connection from="29975030" to="179267061#1" fromLane="0" toLane="0"/>
    <connection from="29975030" to="179267061#1" fromLane="1" toLane="1"/>

    <connection from="321307751" to="4526341#3" fromLane="0" toLane="0"/>
    <connection from="321307751" to="4526341#3" fromLane="0" toLane="1"/>

    <connection from="321307759" to="29975021#0" fromLane="0" toLane="0"/>

    <connection from="334731364#0" to="334731364#1" fromLane="0" toLane="0"/>
    <connection from="334731364#0" to="334731364#1" fromLane="1" toLane="1"/>
    <connection from="334731364#0" to="334731364#1" fromLane="2" toLane="2"/>
    <connection from="334731364#0" to="334731364#1" fromLane="3" toLane="3"/>

    <connection from="334731364#1" to="334731364#2" fromLane="0" toLane="0"/>
    <connection from="334731364#1" to="334731364#2" fromLane="1" toLane="1"/>
    <connection from="334731364#1" to="334731364#2" fromLane="2" toLane="2"/>
    <connection from="334731364#1" to="334731364#2" fromLane="3" toLane="3"/>

    <connection from="334731364#2" to="417038678" fromLane="0" toLane="0"/>
    <connection from="334731364#2" to="334731364#3" fromLane="0" toLane="0"/>
    <connection from="334731364#2" to="334731364#3" fromLane="1" toLane="1"/>
    <connection from="334731364#2" to="334731364#3" fromLane="2" toLane="2"/>
    <connection from="334731364#2" to="334731364#3" fromLane="3" toLane="3"/>

    <connection from="334731364#3" to="131450470" fromLane="0" toLane="0"/>
    <connection from="334731364#3" to="131450470" fromLane="1" toLane="1"/>
    <connection from="334731364#3" to="131450470" fromLane="2" toLane="2"/>
    <connection from="334731364#3" to="131450470" fromLane="3" toLane="3"/>
    <connection from="334731364#3" to="131450470" fromLane="3" toLane="4"/>

    <connection from="334731365#0" to="334731365#1" fromLane="0" toLane="0"/>
    <connection from="334731365#0" to="334731365#1" fromLane="1" toLane="1"/>
    <connection from="334731365#0" to="334731365#1" fromLane="2" toLane="2"/>

    <connection from="334731365#1" to="334731365#2" fromLane="0" toLane="0"/>
    <connection from="334731365#1" to="334731365#2" fromLane="1" toLane="1"/>
    <connection from="334731365#1" to="334731365#2" fromLane="2" toLane="2"/>

    <connection from="334731365#2" to="334731365#3" fromLane="0" toLane="0"/>
    <connection from="334731365#2" to="334731365#3" fromLane="1" toLane="1"/>
    <connection from="334731365#2" to="334731365#3" fromLane="2" toLane="2"/>

    <connection from="334731365#3" to="7972776#0" fromLane="0" toLane="0"/>
    <connection from="334731365#3" to="43759864#1" fromLane="0" toLane="0"/>
    <connection from="334731365#3" to="112538811#0" fromLane="0" toLane="0"/>
    <connection from="334731365#3" to="112538811#0" fromLane="1" toLane="1"/>
    <connection from="334731365#3" to="112538811#0" fromLane="2" toLane="2"/>

    <connection from="334731366" to="44508935" fromLane="0" toLane="0"/>
    <connection from="334731366" to="44508935" fromLane="1" toLane="1"/>
    <connection from="334731366" to="44508934" fromLane="1" toLane="0"/>
    <connection from="334731366" to="44508934" fromLane="2" toLane="1"/>

    <connection from="335735810#0" to="335735810#1" fromLane="0" toLane="0"/>
    <connection from="335735810#0" to="335735810#1" fromLane="1" toLane="1"/>

    <connection from="335735810#1" to="335735810#2" fromLane="0" toLane="0"/>
    <connection from="335735810#1" to="335735810#2" fromLane="1" toLane="1"/>

    <connection from="335735810#2" to="335735810#3" fromLane="0" toLane="0"/>
    <connection from="335735810#2" to="335735810#3" fromLane="1" toLane="1"/>

    <connection from="335735810#3" to="112538800#0" fromLane="0" toLane="0"/>
    <connection from="335735810#3" to="109462894#0" fromLane="0" toLane="0"/>
    <connection from="335735810#3" to="4261173#0" fromLane="1" toLane="2"/>

    <connection from="4078600#0" to="4078600#1" fromLane="0" toLane="0"/>
    <connection from="4078600#0" to="4078600#1" fromLane="1" toLane="1"/>

    <connection from="4078600#1" to="4078600#2" fromLane="0" toLane="0"/>
    <connection from="4078600#1" to="4078600#2" fromLane="1" toLane="1"/>

    <connection from="4078600#2" to="185181407#0" fromLane="0" toLane="0"/>
    <connection from="4078600#2" to="185181407#0" fromLane="1" toLane="1"/>

    <connection from="4078618#0" to="4078618#1" fromLane="0" toLane="0"/>
    <connection from="4078618#0" to="4078618#1" fromLane="1" toLane="1"/>

    <connection from="4078618#1" to="425034964" fromLane="0" toLane="0"/>
    <connection from="4078618#1" to="425034965#0" fromLane="0" toLane="0"/>
    <connection from="4078618#1" to="425034965#0" fromLane="1" toLane="1"/>

    <connection from="417038678" to="136124312" fromLane="0" toLane="0"/>

    <connection from="423874152" to="-109462900#1" fromLane="0" toLane="0"/>
    <connection from="423874152" to="137216215#0" fromLane="0" toLane="0"/>
    <connection from="423874152" to="137216215#0" fromLane="1" toLane="1"/>
    <connection from="423874152" to="109462886" fromLane="1" toLane="0"/>

    <connection from="425034964" to="-44572474#1" fromLane="0" toLane="0"/>
    <connection from="425034964" to="229826287" fromLane="0" toLane="0"/>
    <connection from="425034964" to="29974989#0" fromLane="0" toLane="1"/>

    <connection from="425034965#0" to="425034965#1" fromLane="0" toLane="0"/>
    <connection from="425034965#0" to="425034965#1" fromLane="1" toLane="1"/>

    <connection from="425034965#1" to="29975030" fromLane="0" toLane="0"/>
    <connection from="425034965#1" to="29975030" fromLane="0" toLane="1"/>
    <connection from="425034965#1" to="425034965#2" fromLane="0" toLane="0"/>
    <connection from="425034965#1" to="425034965#2" fromLane="1" toLane="1"/>

    <connection from="425034965#2" to="425034965#3" fromLane="0" toLane="0"/>
    <connection from="425034965#2" to="425034965#3" fromLane="1" toLane="1"/>

    <connection from="425034965#3" to="179267061#0" fromLane="0" toLane="0"/>
    <connection from="425034965#3" to="179267058" fromLane="0" toLane="0"/>
    <connection from="425034965#3" to="179267058" fromLane="1" toLane="1"/>

    <connection from="4261173#0" to="4261173#1" fromLane="0" toLane="0"/>
    <connection from="4261173#0" to="4261173#1" fromLane="1" toLane="1"/>
    <connection from="4261173#0" to="4261173#1" fromLane="2" toLane="2"/>

    <connection from="4261173#1" to="334731364#0" fromLane="0" toLane="1"/>
    <connection from="4261173#1" to="334731364#0" fromLane="1" toLane="2"/>
    <connection from="4261173#1" to="334731364#0" fromLane="2" toLane="3"/>

    <connection from="4261174" to="335735810#0" fromLane="0" toLane="0"/>
    <connection from="4261174" to="335735810#0" fromLane="0" toLane="1"/>

    <connection from="4291302" to="7972177" fromLane="0" toLane="0"/>
    <connection from="4291302" to="44508932#0" fromLane="0" toLane="0"/>
    <connection from="4291302" to="44508932#0" fromLane="1" toLane="1"/>

    <connection from="4291303#0" to="4291303#1" fromLane="0" toLane="0"/>
    <connection from="4291303#0" to="4291303#1" fromLane="1" toLane="1"/>
    <connection from="4291303#0" to="4291303#1" fromLane="2" toLane="2"/>

    <connection from="4334163#0" to="4334163#1" fromLane="0" toLane="0"/>
    <connection from="4334163#0" to="4334163#1" fromLane="1" toLane="1"/>

    <connection from="4334163#1" to="7972177" fromLane="0" toLane="1"/>
    <connection from="4334163#1" to="44508932#0" fromLane="0" toLane="0"/>
    <connection from="4334163#1" to="44508932#0" fromLane="1" toLane="1"/>

    <connection from="43405581" to="437147507" fromLane="0" toLane="0"/>
    <connection from="43405581" to="437147507" fromLane="0" toLane="1"/>
    <connection from="43405581" to="4387266" fromLane="0" toLane="0"/>
    <connection from="43405581" to="4387266" fromLane="1" toLane="1"/>
    <connection from="43405581" to="43407377#0" fromLane="2" toLane="0"/>
    <connection from="43405581" to="43407377#0" fromLane="3" toLane="1"/>

    <connection from="43405582" to="4261173#0" fromLane="0" toLane="0"/>
    <connection from="43405582" to="112538800#0" fromLane="1" toLane="0"/>
    <connection from="43405582" to="109462894#0" fromLane="3" toLane="0"/>

    <connection from="43407376" to="29975003" fromLane="0" toLane="0"/>
    <connection from="43407376" to="29975003" fromLane="1" toLane="1"/>

    <connection from="43407377#0" to="43407377#1" fromLane="0" toLane="0"/>
    <connection from="43407377#0" to="43407377#1" fromLane="1" toLane="1"/>

    <connection from="43407377#1" to="179267061#0" fromLane="0" toLane="0"/>
    <connection from="43407377#1" to="179267061#0" fromLane="1" toLane="1"/>

    <connection from="4353019#0" to="4353019#1" fromLane="0" toLane="0"/>

    <connection from="4353019#1" to="4353019#2" fromLane="0" toLane="0"/>

    <connection from="4353019#2" to="4353019#3" fromLane="0" toLane="0"/>

    <connection from="4353019#3" to="4353019#4" fromLane="0" toLane="0"/>
    <connection from="4353019#3" to="14567386#2" fromLane="0" toLane="0"/>

    <connection from="4353019#4" to="4353019#5" fromLane="0" toLane="0"/>

    <connection from="4353019#5" to="4353019#6" fromLane="0" toLane="0"/>

    <connection from="4353019#6" to="109462896#6" fromLane="0" toLane="0"/>

    <connection from="4353020#0" to="4353020#1" fromLane="0" toLane="0"/>

    <connection from="4353020#1" to="4353020#2" fromLane="0" toLane="0"/>

    <connection from="4353020#2" to="4353020#3" fromLane="0" toLane="0"/>
    <connection from="4353020#2" to="14567386#5" fromLane="0" toLane="0"/>

    <connection from="4353020#3" to="109462896#5" fromLane="0" toLane="0"/>
    <connection from="4353020#3" to="4353020#4" fromLane="0" toLane="0"/>

    <connection from="4353020#4" to="4526341#4" fromLane="0" toLane="2"/>
    <connection from="4353020#4" to="4526341#4" fromLane="0" toLane="3"/>

    <connection from="4353021#0" to="4353021#1" fromLane="0" toLane="0"/>
    <connection from="4353021#0" to="109462891#4" fromLane="0" toLane="0"/>

    <connection from="4353021#1" to="4353021#2" fromLane="0" toLane="0"/>

    <connection from="4353021#10" to="334731365#0" fromLane="0" toLane="0"/>
    <connection from="4353021#10" to="-44737270" fromLane="0" toLane="0"/>

    <connection from="4353021#2" to="4526341#5" fromLane="0" toLane="0"/>