<!-- Generated by mutraff_tazcalc. alvaro.paricio@uah.es -->
  -->
<tazs>
  <!-- name="Taz_Colon" -->
  <taz id="1000" edges="44737268#4 44508936#0 44508936#1 131450470 417038678 4291303#0 4291303#1 4261174 164369269 43759863 334731365#3 334731365#2 4291302 4334163#0 4334163#1 335735810#1 334731364#0 334731364#1 334731364#2 334731364#3 334731366 112538817#0 335735810#0 44737268#2 44737268#3 164369266#1 164369266#0 131451859 44508932#0 44508932#1 43759864#1 43759864#0 112538811#0 112538811#1 7972776#1 7972776#0 7972776#3 7972776#2 136124312 7972177 44508935 44508934 7726313" />
  <!-- name="Taz_Goya" -->
  <taz id="1001" edges="4526390#3 -109462895 335735810#3 14567301 109462886 109462882 -109462899#0 -109462899#1 198644581#0 198644581#1 109462887#1 112538800#0 109462887#0 109462899#0 109462899#1 43405582 4261173#0 23573143 423874152 109462891#0 -198644581#0 -198644581#1 -137519639 109462900#1 109462900#0 4526341#11 4526341#10 -109462894#1 -109462894#0 -109462894#2 109462894#1 109462894#0 109462894#2 109462895 109462896#0 137519639 109462875 -109462886 137216215#0 -109462900#1 -109462900#0 137216216#3 137519645 -109462887#1 -109462887#0 14567386#9" />
  <!-- name="Taz_Ppe_vergara" -->
  <taz id="1002" edges="137206573 44572472 44572477 -44572472 -4812341 4688562#2 4688562#1 4688562#0 44572476 -44572475#1 -44572475#0 -44572475#2 23573546#12 -4688562#2 -4688562#1 -4688562#0 -44572474#0 4078618#0 44572474#0 4812341 44572475#1 44572475#0 44572475#2 4078600#2 185181407#1 185181407#0 137216216#0" />
  <!-- name="Taz_Alcala" -->
  <taz id="1003" edges="4387266 104864841 425034965#1 425034965#2 425034965#3 4526341#1 4526341#3 4526341#2 43407377#0 43407377#1 43407376 80789130 29975003 179267061#0 179267058 29975021#0 29975021#1 29975021#2 321307759 321307751 29975030 437147507 29974989#1" />
  <!-- name="Taz_Recoletos" -->
  <taz id="1004" edges="112538800#10 112538800#8 7972771#2 4353019#1 4353019#0 112538800#9 7972761 7972765" />
</tazs>
