<?xml version="1.0" encoding="UTF-8"?>

<!-- generated on Sun Feb  5 11:03:13 2017 by SUMO netconvert Version 0.27.1
<?xml version="1.0" encoding="UTF-8"?>

<configuration xmlns:xsi="http://www.w3.org/2001/XMLSchema-instance" xsi:noNamespaceSchemaLocation="http://sumo.dlr.de/xsd/netconvertConfiguration.xsd">

    <input>
        <type-files value="netconvert.osm.types.xml"/>
        <osm-files value="../osm/madrid_retiro.osm"/>
    </input>

    <output>
        <output-file value="madrid_retiro.net.xml"/>
        <plain-output-prefix value="madrid_retiro"/>
        <output.street-names value="true"/>
        <output.original-names value="true"/>
    </output>

    <projection>
        <proj.utm value="true"/>
        <proj.plain-geo value="true"/>
    </projection>

    <edge_removal>
        <remove-edges.by-type value="highway.bridleway,highway.cycleway,highway.footway,highway.ford,highway.path,highway.pedestrian,highway.service,highway.stairs,highway.step,highway.steps,highway.track,railway.light_rail,railway.preserved,railway.rail,railway.subway,railway.tram"/>
    </edge_removal>

</configuration>
-->

<edges version="0.27" xmlns:xsi="http://www.w3.org/2001/XMLSchema-instance" xsi:noNamespaceSchemaLocation="http://sumo.dlr.de/xsd/edges_file.xsd">
    <edge id="-109462886" from="1505184330" to="25552416" name="Calle de Goya" priority="6" type="highway.tertiary" numLanes="1" speed="13.89" disallow="tram rail_urban rail rail_electric ship"/>
    <edge id="-109462887#0" from="2620304879" to="25552423" name="Calle de Goya" priority="6" type="highway.tertiary" numLanes="1" speed="13.89" disallow="tram rail_urban rail rail_electric ship"/>
    <edge id="-109462887#1" from="25552421" to="2620304879" name="Calle de Goya" priority="6" type="highway.tertiary" numLanes="1" speed="13.89" disallow="tram rail_urban rail rail_electric ship"/>
    <edge id="-109462894#0" from="1555729961" to="25552447" name="Calle de Goya" priority="6" type="highway.tertiary" numLanes="1" speed="13.89" disallow="tram rail_urban rail rail_electric ship"/>
    <edge id="-109462894#1" from="1278839005" to="1555729961" name="Calle de Goya" priority="6" type="highway.tertiary" numLanes="1" speed="13.89" disallow="tram rail_urban rail rail_electric ship"/>
    <edge id="-109462894#2" from="25552446" to="1278839005" name="Calle de Goya" priority="6" type="highway.tertiary" numLanes="1" speed="13.89" disallow="tram rail_urban rail rail_electric ship"/>
    <edge id="-109462895" from="25552418" to="25552421" name="Calle de Goya" priority="6" type="highway.tertiary" numLanes="1" speed="13.89" shape="-3.681515,40.425060 -3.682646,40.425099 -3.682781,40.425107" disallow="tram rail_urban rail rail_electric ship"/>
    <edge id="-109462899#0" from="1950481116" to="25552425" name="Calle de Goya" priority="6" type="highway.tertiary" numLanes="1" speed="13.89" shape="-3.684368,40.425198 -3.685042,40.425232 -3.685224,40.425242 -3.685369,40.425249" disallow="tram rail_urban rail rail_electric ship"/>
    <edge id="-109462899#1" from="25552423" to="1950481116" name="Calle de Goya" priority="6" type="highway.tertiary" numLanes="1" speed="13.89" disallow="tram rail_urban rail rail_electric ship"/>
    <edge id="-109462900#0" from="1505184331" to="25552418" name="Calle de Goya" priority="6" type="highway.tertiary" numLanes="1" speed="13.89" shape="-3.680417,40.425014 -3.681378,40.425055 -3.681515,40.425060" disallow="tram rail_urban rail rail_electric ship"/>
    <edge id="-109462900#1" from="25552416" to="1505184331" name="Calle de Goya" priority="6" type="highway.tertiary" numLanes="1" speed="13.89" disallow="tram rail_urban rail rail_electric ship"/>
    <edge id="-137519639" from="1505184329" to="1505184330" name="Calle de Goya" priority="6" type="highway.tertiary" numLanes="1" speed="13.89" disallow="tram rail_urban rail rail_electric ship"/>
    <edge id="-198644581#0" from="1950481125" to="25552446" name="Calle de Goya" priority="6" type="highway.tertiary" numLanes="1" speed="13.89" disallow="tram rail_urban rail rail_electric ship"/>
    <edge id="-198644581#1" from="25552425" to="1950481125" name="Calle de Goya" priority="6" type="highway.tertiary" numLanes="1" speed="13.89" disallow="tram rail_urban rail rail_electric ship"/>
    <edge id="-44572472" from="2383701848" to="1505184315" name="Calle de Alcalá" priority="9" type="highway.primary" numLanes="2" speed="13.89" disallow="tram rail_urban rail rail_electric ship"/>
    <edge id="-44572474#0" from="1505184314" to="2383701848" name="Calle de Alcalá" priority="9" type="highway.primary" numLanes="2" speed="13.89" disallow="tram rail_urban rail rail_electric ship"/>
    <edge id="-44572474#1" from="2383701847" to="1505184314" name="Calle de Alcalá" priority="9" type="highway.primary" numLanes="2" speed="13.89" disallow="tram rail_urban rail rail_electric ship"/>
    <edge id="-44572475#0" from="1505184316" to="2383701848" name="Calle del Príncipe de Vergara" priority="7" type="highway.secondary" numLanes="2" speed="13.89" disallow="tram rail_urban rail rail_electric ship"/>
    <edge id="-44572475#1" from="1505184318" to="1505184316" name="Calle del Príncipe de Vergara" priority="7" type="highway.secondary" numLanes="2" speed="13.89" disallow="tram rail_urban rail rail_electric ship"/>
    <edge id="-44572475#2" from="29484171" to="1505184318" name="Calle del Príncipe de Vergara" priority="7" type="highway.secondary" numLanes="2" speed="13.89" disallow="tram rail_urban rail rail_electric ship"/>
    <edge id="-44737270" from="25903309" to="25903307" name="Calle de Doña Bárbara de Braganza" priority="6" type="highway.tertiary" numLanes="1" speed="13.89" disallow="tram rail_urban rail rail_electric ship"/>
    <edge id="-4688562#0" from="1505184312" to="2383701846" name="Avenida de Menéndez Pelayo" priority="7" type="highway.secondary" numLanes="2" speed="13.89" disallow="tram rail_urban rail rail_electric ship"/>
    <edge id="-4688562#1" from="1505184313" to="1505184312" name="Avenida de Menéndez Pelayo" priority="7" type="highway.secondary" numLanes="2" speed="13.89" disallow="tram rail_urban rail rail_electric ship"/>
    <edge id="-4688562#2" from="2383701848" to="1505184313" name="Avenida de Menéndez Pelayo" priority="7" type="highway.secondary" numLanes="2" speed="13.89" disallow="tram rail_urban rail rail_electric ship"/>
    <edge id="-4812341" from="2383701846" to="21527321" name="Avenida de Menéndez Pelayo" priority="7" type="highway.secondary" numLanes="2" speed="27.78" disallow="tram rail_urban rail rail_electric ship"/>
    <edge id="-7972772#0" from="25901917" to="25901921" name="Calle del Cid" priority="4" type="highway.residential" numLanes="1" speed="13.89" disallow="tram rail_urban rail rail_electric ship"/>
    <edge id="-7972772#1" from="25901914" to="25901917" name="Calle del Cid" priority="4" type="highway.residential" numLanes="1" speed="13.89" disallow="tram rail_urban rail rail_electric ship"/>
    <edge id="104864841" from="25552412" to="1209330640" name="Calle de Alcalá" priority="4" type="highway.residential" numLanes="1" speed="13.89" spreadType="center" disallow="tram rail_urban rail rail_electric ship"/>
    <edge id="109462875" from="25552446" to="1950481127" name="Calle de Claudio Coello" priority="4" type="highway.residential" numLanes="1" speed="13.89" spreadType="center" disallow="tram rail_urban rail rail_electric ship"/>
    <edge id="109462882" from="25552418" to="1950481115" name="Calle de Castelló" priority="4" type="highway.residential" numLanes="1" speed="13.89" spreadType="center" disallow="tram rail_urban rail rail_electric ship"/>
    <edge id="109462886" from="25552416" to="1505184330" name="Calle de Goya" priority="6" type="highway.tertiary" numLanes="1" speed="13.89" disallow="tram rail_urban rail rail_electric ship"/>
    <edge id="109462887#0" from="25552423" to="2620304879" name="Calle de Goya" priority="6" type="highway.tertiary" numLanes="1" speed="13.89" disallow="tram rail_urban rail rail_electric ship"/>
    <edge id="109462887#1" from="2620304879" to="25552421" name="Calle de Goya" priority="6" type="highway.tertiary" numLanes="1" speed="13.89" disallow="tram rail_urban rail rail_electric ship"/>
    <edge id="109462891#0" from="25552421" to="2620304856" name="Calle de Núñez de Balboa" priority="4" type="highway.residential" numLanes="1" speed="13.89" shape="-3.682781,40.425107 -3.682785,40.425007 -3.682795,40.424893" spreadType="center" disallow="tram rail_urban rail rail_electric ship"/>
    <edge id="109462891#1" from="2620304856" to="28096488" name="Calle de Núñez de Balboa" priority="4" type="highway.residential" numLanes="1" speed="13.89" shape="-3.682795,40.424893 -3.682888,40.423759 -3.682892,40.423715" spreadType="center" disallow="tram rail_urban rail rail_electric ship"/>
    <edge id="109462891#2" from="28096488" to="1963430768" name="Calle de Núñez de Balboa" priority="4" type="highway.residential" numLanes="1" speed="13.89" spreadType="center" disallow="tram rail_urban rail rail_electric ship"/>
    <edge id="109462891#3" from="1963430768" to="255289007" name="Calle de Núñez de Balboa" priority="4" type="highway.residential" numLanes="1" speed="13.89" spreadType="center" disallow="tram rail_urban rail rail_electric ship"/>
    <edge id="109462891#4" from="255289007" to="1209330640" name="Calle de Núñez de Balboa" priority="4" type="highway.residential" numLanes="1" speed="13.89" shape="-3.683018,40.422265 -3.683050,40.421611 -3.683081,40.421556" spreadType="center" disallow="tram rail_urban rail rail_electric ship"/>
    <edge id="109462894#0" from="25552447" to="1555729961" name="Calle de Goya" priority="6" type="highway.tertiary" numLanes="1" speed="13.89" disallow="tram rail_urban rail rail_electric ship"/>
    <edge id="109462894#1" from="1555729961" to="1278839005" name="Calle de Goya" priority="6" type="highway.tertiary" numLanes="1" speed="13.89" disallow="tram rail_urban rail rail_electric ship"/>
    <edge id="109462894#2" from="1278839005" to="25552446" name="Calle de Goya" priority="6" type="highway.tertiary" numLanes="1" speed="13.89" disallow="tram rail_urban rail rail_electric ship"/>
    <edge id="109462895" from="25552421" to="25552418" name="Calle de Goya" priority="6" type="highway.tertiary" numLanes="1" speed="13.89" shape="-3.682781,40.425107 -3.682646,40.425099 -3.681515,40.425060" disallow="tram rail_urban rail rail_electric ship"/>
    <edge id="109462896#0" from="25552425" to="1981925767" name="Calle de Lagasca" priority="4" type="highway.residential" numLanes="1" speed="13.89" spreadType="center" disallow="tram rail_urban rail rail_electric ship"/>
    <edge id="109462896#1" from="1981925767" to="26513117" name="Calle de Lagasca" priority="4" type="highway.residential" numLanes="1" speed="13.89" spreadType="center" disallow="tram rail_urban rail rail_electric ship"/>
    <edge id="109462896#2" from="26513117" to="26513124" name="Calle de Lagasca" priority="4" type="highway.residential" numLanes="1" speed="13.89" shape="-3.685549,40.423834 -3.685600,40.423209 -3.685607,40.423112" spreadType="center" disallow="tram rail_urban rail rail_electric ship"/>
    <edge id="109462896#3" from="26513124" to="26513111" name="Calle de Lagasca" priority="4" type="highway.residential" numLanes="1" speed="13.89" spreadType="center" disallow="tram rail_urban rail rail_electric ship"/>
    <edge id="109462896#4" from="26513111" to="26513105" name="Calle de Lagasca" priority="4" type="highway.residential" numLanes="1" speed="13.89" spreadType="center" disallow="tram rail_urban rail rail_electric ship"/>
    <edge id="109462896#5" from="26513105" to="26513097" name="Calle de Lagasca" priority="4" type="highway.residential" numLanes="1" speed="13.89" shape="-3.685765,40.421696 -3.685826,40.421084 -3.685853,40.421052" spreadType="center" disallow="tram rail_urban rail rail_electric ship"/>
    <edge id="109462896#6" from="26513097" to="1209332387" name="Calle de Lagasca" priority="4" type="highway.residential" numLanes="1" speed="13.89" shape="-3.685853,40.421052 -3.685878,40.421022 -3.685912,40.420735 -3.685945,40.420681" spreadType="center" disallow="tram rail_urban rail rail_electric ship"/>
    <edge id="109462899#0" from="25552425" to="1950481116" name="Calle de Goya" priority="6" type="highway.tertiary" numLanes="1" speed="13.89" shape="-3.685369,40.425249 -3.685224,40.425242 -3.685042,40.425232 -3.684368,40.425198" disallow="tram rail_urban rail rail_electric ship"/>
    <edge id="109462899#1" from="1950481116" to="25552423" name="Calle de Goya" priority="6" type="highway.tertiary" numLanes="1" speed="13.89" disallow="tram rail_urban rail rail_electric ship"/>
    <edge id="109462900#0" from="25552418" to="1505184331" name="Calle de Goya" priority="6" type="highway.tertiary" numLanes="1" speed="13.89" shape="-3.681515,40.425060 -3.681378,40.425055 -3.680417,40.425014" disallow="tram rail_urban rail rail_electric ship"/>
    <edge id="109462900#1" from="1505184331" to="25552416" name="Calle de Goya" priority="6" type="highway.tertiary" numLanes="1" speed="13.89" disallow="tram rail_urban rail rail_electric ship"/>
    <edge id="112538800#0" from="25552447" to="2377018002" name="Calle de Serrano" priority="6" type="highway.tertiary" numLanes="1" speed="13.89" spreadType="center" disallow="tram rail_urban rail rail_electric ship"/>
    <edge id="112538800#1" from="2377018002" to="1278838937" name="Calle de Serrano" priority="6" type="highway.tertiary" numLanes="1" speed="13.89" spreadType="center" disallow="tram rail_urban rail rail_electric ship"/>
    <edge id="112538800#10" from="3235382373" to="2506473199" name="Calle de Serrano" priority="6" type="highway.tertiary" numLanes="1" speed="13.89" spreadType="center" disallow="tram rail_urban rail rail_electric ship"/>
    <edge id="112538800#2" from="1278838937" to="26513072" name="Calle de Serrano" priority="6" type="highway.tertiary" numLanes="1" speed="13.89" spreadType="center" disallow="tram rail_urban rail rail_electric ship"/>
    <edge id="112538800#3" from="26513072" to="3323813669" name="Calle de Serrano" priority="6" type="highway.tertiary" numLanes="1" speed="13.89" spreadType="center" disallow="tram rail_urban rail rail_electric ship"/>
    <edge id="112538800#4" from="3323813669" to="942080445" name="Calle de Serrano" priority="6" type="highway.tertiary" numLanes="1" speed="13.89" spreadType="center" disallow="tram rail_urban rail rail_electric ship"/>
    <edge id="112538800#5" from="942080445" to="25901919" name="Calle de Serrano" priority="6" type="highway.tertiary" numLanes="1" speed="13.89" spreadType="center" disallow="tram rail_urban rail rail_electric ship"/>
    <edge id="112538800#6" from="25901919" to="1900998827" name="Calle de Serrano" priority="6" type="highway.tertiary" numLanes="1" speed="13.89" spreadType="center" disallow="tram rail_urban rail rail_electric ship"/>
    <edge id="112538800#7" from="1900998827" to="4576234377" name="Calle de Serrano" priority="6" type="highway.tertiary" numLanes="1" speed="13.89" spreadType="center" disallow="tram rail_urban rail rail_electric ship"/>
    <edge id="112538800#8" from="4576234377" to="942080448" name="Calle de Serrano" priority="6" type="highway.tertiary" numLanes="1" speed="13.89" spreadType="center" disallow="tram rail_urban rail rail_electric ship"/>
    <edge id="112538800#9" from="942080448" to="3235382373" name="Calle de Serrano" priority="6" type="highway.tertiary" numLanes="1" speed="13.89" spreadType="center" disallow="tram rail_urban rail rail_electric ship"/>
    <edge id="112538811#0" from="25903298" to="1278839038" name="Paseo de Recoletos" priority="9" type="highway.primary" numLanes="3" speed="13.89" shape="-3.690444,40.424779 -3.690345,40.424935 -3.690262,40.425069 -3.690224,40.425146 -3.690211,40.425234 -3.690217,40.425315 -3.690239,40.425401" spreadType="center" disallow="tram rail_urban rail rail_electric ship"/>
    <edge id="112538811#1" from="1278839038" to="25901951" name="Paseo de Recoletos" priority="9" type="highway.primary" numLanes="3" speed="13.89" shape="-3.690239,40.425401 -3.690268,40.425472 -3.690286,40.425541" spreadType="center" disallow="tram rail_urban rail rail_electric ship"/>
    <edge id="112538817#0" from="365886564" to="1915012228" name="Paseo de Recoletos" priority="9" type="highway.primary" numLanes="2" speed="13.89" shape="-3.690656,40.424848 -3.690646,40.424642 -3.690682,40.424374" spreadType="center" disallow="tram rail_urban rail rail_electric ship"/>
    <edge id="112538817#1" from="1915012228" to="1278839019" name="Paseo de Recoletos" priority="9" type="highway.primary" numLanes="2" speed="13.89" spreadType="center" disallow="tram rail_urban rail rail_electric ship"/>
    <edge id="112538817#2" from="1278839019" to="3428425011" name="Paseo de Recoletos" priority="9" type="highway.primary" numLanes="2" speed="13.89" spreadType="center" disallow="tram rail_urban rail rail_electric ship"/>
    <edge id="112538817#3" from="3428425011" to="25903307" name="Paseo de Recoletos" priority="9" type="highway.primary" numLanes="2" speed="13.89" spreadType="center" disallow="tram rail_urban rail rail_electric ship"/>
    <edge id="131450470" from="1278838994" to="25901951" name="Plaza de Colón" priority="9" type="highway.primary" numLanes="6" speed="13.89" spreadType="center" disallow="tram rail_urban rail rail_electric ship"/>
    <edge id="131451859" from="25901958" to="345537803" name="Plaza de Colón" priority="9" type="highway.primary" numLanes="3" speed="13.89" spreadType="center" disallow="tram rail_urban rail rail_electric ship"/>
    <edge id="136124312" from="3418035846" to="1493669240" name="Paseo de la Castellana" priority="4" type="highway.residential" numLanes="1" speed="13.89" spreadType="center" disallow="tram rail_urban rail rail_electric ship"/>
    <edge id="137206573" from="29484171" to="1505184322" name="Calle del Príncipe de Vergara" priority="7" type="highway.secondary" numLanes="2" speed="13.89" spreadType="center" disallow="tram rail_urban rail rail_electric ship"/>
    <edge id="137216215#0" from="25552416" to="1505184328" name="Calle del Príncipe de Vergara" priority="7" type="highway.secondary" numLanes="2" speed="13.89" spreadType="center" disallow="tram rail_urban rail rail_electric ship"/>
    <edge id="137216215#1" from="1505184328" to="1505184323" name="Calle del Príncipe de Vergara" priority="7" type="highway.secondary" numLanes="2" speed="13.89" spreadType="center" disallow="tram rail_urban rail rail_electric ship"/>
    <edge id="137216216#0" from="1505184322" to="1505184324" name="Calle del Príncipe de Vergara" priority="7" type="highway.secondary" numLanes="2" speed="13.89" spreadType="center" disallow="tram rail_urban rail rail_electric ship"/>
    <edge id="137216216#1" from="1505184324" to="1505184326" name="Calle del Príncipe de Vergara" priority="7" type="highway.secondary" numLanes="2" speed="13.89" spreadType="center" disallow="tram rail_urban rail rail_electric ship"/>
    <edge id="137216216#2" from="1505184326" to="1505184327" name="Calle del Príncipe de Vergara" priority="7" type="highway.secondary" numLanes="2" speed="13.89" spreadType="center" disallow="tram rail_urban rail rail_electric ship"/>
    <edge id="137216216#3" from="1505184327" to="1505184330" name="Calle del Príncipe de Vergara" priority="7" type="highway.secondary" numLanes="2" speed="13.89" spreadType="center" disallow="tram rail_urban rail rail_electric ship"/>
    <edge id="137519639" from="1505184330" to="1505184329" name="Calle de Goya" priority="6" type="highway.tertiary" numLanes="1" speed="13.89" disallow="tram rail_urban rail rail_electric ship"/>
    <edge id="137519645" from="1505184330" to="1505184332" name="Calle del Príncipe de Vergara" priority="7" type="highway.secondary" numLanes="2" speed="13.89" spreadType="center" disallow="tram rail_urban rail rail_electric ship"/>
    <edge id="14567301" from="1981925770" to="25552425" name="Calle de Lagasca" priority="4" type="highway.residential" numLanes="1" speed="13.89" spreadType="center" disallow="tram rail_urban rail rail_electric ship"/>
    <edge id="14567386#0" from="2005647264" to="4576234821" name="Calle de Claudio Coello" priority="4" type="highway.residential" numLanes="1" speed="13.89" spreadType="center" disallow="tram rail_urban rail rail_electric ship"/>
    <edge id="14567386#1" from="4576234821" to="26513047" name="Calle de Claudio Coello" priority="4" type="highway.residential" numLanes="1" speed="13.89" spreadType="center" disallow="tram rail_urban rail rail_electric ship"/>
    <edge id="14567386#2" from="26513047" to="4576234822" name="Calle de Claudio Coello" priority="4" type="highway.residential" numLanes="1" speed="13.89" spreadType="center" disallow="tram rail_urban rail rail_electric ship"/>
    <edge id="14567386#3" from="4576234822" to="4576234359" name="Calle de Claudio Coello" priority="4" type="highway.residential" numLanes="1" speed="13.89" spreadType="center" disallow="tram rail_urban rail rail_electric ship"/>
    <edge id="14567386#4" from="4576234359" to="26513061" name="Calle de Claudio Coello" priority="4" type="highway.residential" numLanes="1" speed="13.89" spreadType="center" disallow="tram rail_urban rail rail_electric ship"/>
    <edge id="14567386#5" from="26513061" to="26513067" name="Calle de Claudio Coello" priority="4" type="highway.residential" numLanes="1" speed="13.89" spreadType="center" disallow="tram rail_urban rail rail_electric ship"/>
    <edge id="14567386#6" from="26513067" to="26513085" name="Calle de Claudio Coello" priority="4" type="highway.residential" numLanes="1" speed="13.89" shape="-3.686977,40.422467 -3.686782,40.423777 -3.686764,40.423895" spreadType="center" disallow="tram rail_urban rail rail_electric ship"/>
    <edge id="14567386#7" from="26513085" to="1973690393" name="Calle de Claudio Coello" priority="4" type="highway.residential" numLanes="1" speed="13.89" spreadType="center" disallow="tram rail_urban rail rail_electric ship"/>
    <edge id="14567386#8" from="1973690393" to="1950481121" name="Calle de Claudio Coello" priority="4" type="highway.residential" numLanes="1" speed="13.89" spreadType="center" disallow="tram rail_urban rail rail_electric ship"/>
    <edge id="14567386#9" from="1950481121" to="25552446" name="Calle de Claudio Coello" priority="4" type="highway.residential" numLanes="1" speed="13.89" spreadType="center" disallow="tram rail_urban rail rail_electric ship"/>
    <edge id="164369266#0" from="389139048" to="1278838975" name="Paseo de Recoletos" priority="9" type="highway.primary" numLanes="3" speed="13.89" shape="-3.690465,40.425557 -3.690626,40.425422 -3.690662,40.425367 -3.690687,40.425307 -3.690713,40.425237 -3.690727,40.425133" spreadType="center" disallow="tram rail_urban rail rail_electric ship"/>
    <edge id="164369266#1" from="1278838975" to="365886564" name="Paseo de Recoletos" priority="9" type="highway.primary" numLanes="3" speed="13.89" spreadType="center" disallow="tram rail_urban rail rail_electric ship"/>
    <edge id="164369269" from="1760085654" to="25901936" name="Paseo de la Castellana" priority="4" type="highway.residential" numLanes="1" speed="13.89" spreadType="center" disallow="tram rail_urban rail rail_electric ship"/>
    <edge id="179267058" from="389139057" to="2383701845" name="Calle de O&amp;apos;Donnell" priority="9" type="highway.primary" numLanes="2" speed="13.89" spreadType="center" disallow="tram rail_urban rail rail_electric ship"/>
    <edge id="179267061#0" from="389139057" to="329991195" name="Calle de Alcalá" priority="9" type="highway.primary" numLanes="2" speed="13.89" shape="-3.682883,40.421426 -3.682836,40.421449 -3.682472,40.421659" spreadType="center" disallow="tram rail_urban rail rail_electric ship"/>
    <edge id="179267061#1" from="329991195" to="2383701847" name="Calle de Alcalá" priority="9" type="highway.primary" numLanes="2" speed="13.89" shape="-3.682472,40.421659 -3.682345,40.421749 -3.681668,40.422078 -3.681594,40.422172" spreadType="center" disallow="tram rail_urban rail rail_electric ship"/>
    <edge id="185181407#0" from="21527321" to="1957490899" name="Avenida de Menéndez Pelayo" priority="7" type="highway.secondary" numLanes="3" speed="13.89" spreadType="center" disallow="tram rail_urban rail rail_electric ship"/>
    <edge id="185181407#1" from="1957490899" to="3964030753" name="Avenida de Menéndez Pelayo" priority="7" type="highway.secondary" numLanes="3" speed="13.89" spreadType="center" disallow="tram rail_urban rail rail_electric ship"/>
    <edge id="198644581#0" from="25552446" to="1950481125" name="Calle de Goya" priority="6" type="highway.tertiary" numLanes="1" speed="13.89" disallow="tram rail_urban rail rail_electric ship"/>
    <edge id="198644581#1" from="1950481125" to="25552425" name="Calle de Goya" priority="6" type="highway.tertiary" numLanes="1" speed="13.89" disallow="tram rail_urban rail rail_electric ship"/>
    <edge id="229826287" from="2383701847" to="255289006" name="Calle de Villanueva" priority="4" type="highway.residential" numLanes="1" speed="13.89" spreadType="center" disallow="tram rail_urban rail rail_electric ship"/>
    <edge id="23573143" from="1963430771" to="25552421" name="Calle de Núñez de Balboa" priority="4" type="highway.residential" numLanes="1" speed="13.89" spreadType="center" disallow="tram rail_urban rail rail_electric ship"/>
    <edge id="23573546#0" from="26513072" to="1555729967" name="Calle de Jorge Juan" priority="4" type="highway.residential" numLanes="1" speed="13.89" spreadType="center" disallow="tram rail_urban rail rail_electric ship"/>
    <edge id="23573546#1" from="1555729967" to="1973690392" name="Calle de Jorge Juan" priority="4" type="highway.residential" numLanes="1" speed="13.89" spreadType="center" disallow="tram rail_urban rail rail_electric ship"/>
    <edge id="23573546#10" from="28096488" to="29484172" name="Calle de Jorge Juan" priority="4" type="highway.residential" numLanes="1" speed="13.89" shape="-3.682892,40.423715 -3.682722,40.423706 -3.681787,40.423656 -3.681632,40.423648" spreadType="center" disallow="tram rail_urban rail rail_electric ship"/>
    <edge id="23573546#11" from="29484172" to="1505184321" name="Calle de Jorge Juan" priority="4" type="highway.residential" numLanes="1" speed="13.89" shape="-3.681632,40.423648 -3.681444,40.423639 -3.680439,40.423587" spreadType="center" disallow="tram rail_urban rail rail_electric ship"/>
    <edge id="23573546#12" from="1505184321" to="29484171" name="Calle de Jorge Juan" priority="4" type="highway.residential" numLanes="1" speed="13.89" spreadType="center" disallow="tram rail_urban rail rail_electric ship"/>
    <edge id="23573546#2" from="1973690392" to="26513085" name="Calle de Jorge Juan" priority="4" type="highway.residential" numLanes="1" speed="13.89" shape="-3.687964,40.423957 -3.686931,40.423904 -3.686764,40.423895" spreadType="center" disallow="tram rail_urban rail rail_electric ship"/>
    <edge id="23573546#3" from="26513085" to="996183822" name="Calle de Jorge Juan" priority="4" type="highway.residential" numLanes="1" speed="13.89" shape="-3.686764,40.423895 -3.686609,40.423888 -3.686301,40.423872" spreadType="center" disallow="tram rail_urban rail rail_electric ship"/>
    <edge id="23573546#4" from="996183822" to="996184088" name="Calle de Jorge Juan" priority="4" type="highway.residential" numLanes="1" speed="13.89" spreadType="center" disallow="tram rail_urban rail rail_electric ship"/>
    <edge id="23573546#5" from="996184088" to="26513117" name="Calle de Jorge Juan" priority="4" type="highway.residential" numLanes="1" speed="13.89" shape="-3.686006,40.423857 -3.685730,40.423843 -3.685549,40.423834" spreadType="center" disallow="tram rail_urban rail rail_electric ship"/>
    <edge id="23573546#6" from="26513117" to="1973690386" name="Calle de Jorge Juan" priority="4" type="highway.residential" numLanes="1" speed="13.89" shape="-3.685549,40.423834 -3.685380,40.423824 -3.684404,40.423767" spreadType="center" disallow="tram rail_urban rail rail_electric ship"/>
    <edge id="23573546#7" from="1973690386" to="26513155" name="Calle de Jorge Juan" priority="4" type="highway.residential" numLanes="1" speed="13.89" spreadType="center" disallow="tram rail_urban rail rail_electric ship"/>
    <edge id="23573546#8" from="26513155" to="1981925766" name="Calle de Jorge Juan" priority="4" type="highway.residential" numLanes="1" speed="13.89" shape="-3.684238,40.423758 -3.684105,40.423754 -3.683049,40.423720" spreadType="center" disallow="tram rail_urban rail rail_electric ship"/>
    <edge id="23573546#9" from="1981925766" to="28096488" name="Calle de Jorge Juan" priority="4" type="highway.residential" numLanes="1" speed="13.89" spreadType="center" disallow="tram rail_urban rail rail_electric ship"/>
    <edge id="252387586#0" from="3587032531" to="3418035823" name="Paseo de Recoletos" priority="4" type="highway.residential" numLanes="1" speed="13.89" spreadType="center" disallow="tram rail_urban rail rail_electric ship"/>
    <edge id="252387586#1" from="3418035823" to="25901895" name="Paseo de Recoletos" priority="4" type="highway.residential" numLanes="1" speed="13.89" spreadType="center" disallow="tram rail_urban rail rail_electric ship"/>
    <edge id="252387586#2" from="25901895" to="3418035825" name="Paseo de Recoletos" priority="4" type="highway.residential" numLanes="1" speed="13.89" spreadType="center" disallow="tram rail_urban rail rail_electric ship"/>
    <edge id="252387586#3" from="3418035825" to="25901925" name="Paseo de Recoletos" priority="4" type="highway.residential" numLanes="1" speed="13.89" spreadType="center" disallow="tram rail_urban rail rail_electric ship"/>
    <edge id="29974988" from="2383701843" to="26513091" name="Calle de Alcalá" priority="9" type="highway.primary" numLanes="2" speed="13.89" spreadType="center" disallow="tram rail_urban rail rail_electric ship"/>