<?xml version="1.0" encoding="UTF-8"?>

<!-- generated on Sun Oct 21 12:31:20 2018 by SUMO netgenerate Version 0.27.1
<?xml version="1.0" encoding="UTF-8"?>

<configuration xmlns:xsi="http://www.w3.org/2001/XMLSchema-instance" xsi:noNamespaceSchemaLocation="http://sumo.dlr.de/xsd/netgenerateConfiguration.xsd">

    <spider_network>
        <spider value="true"/>
        <spider.arm-number value="16"/>
        <spider.circle-number value="16"/>
        <spider.space-radius value="100"/>
        <spider.omit-center value="true"/>
    </spider_network>

    <output>
        <output-file value="radial16_XXXL_Bastra_nomaps_fulltraffic_logit50.net.xml"/>
        <plain-output-prefix value="radial16_XXXL_Bastra_nomaps_fulltraffic_logit50"/>
    </output>

    <building_defaults>
        <default.lanenumber value="1"/>
        <default.speed value="13.9"/>
        <default.priority value="-1"/>
    </building_defaults>

    <report>
        <verbose value="true"/>
    </report>

</configuration>
-->

<nodes version="0.27" xmlns:xsi="http://www.w3.org/2001/XMLSchema-instance" xsi:noNamespaceSchemaLocation="http://sumo.dlr.de/xsd/nodes_file.xsd">
    <location netOffset="1600.00,1600.00" convBoundary="0.00,0.00,3200.00,3200.00" origBoundary="-1600.00,-1600.00,1600.00,1600.00" projParameter="!"/>

    <node id="1/1" x="1700.00" y="1600.00" type="priority"/>
    <node id="1/10" x="2600.00" y="1600.00" type="priority"/>
    <node id="1/11" x="2700.00" y="1600.00" type="priority"/>
    <node id="1/12" x="2800.00" y="1600.00" type="priority"/>
    <node id="1/13" x="2900.00" y="1600.00" type="priority"/>
    <node id="1/14" x="3000.00" y="1600.00" type="priority"/>
    <node id="1/15" x="3100.00" y="1600.00" type="priority"/>
    <node id="1/16" x="3200.00" y="1600.00" type="priority"/>
    <node id="1/2" x="1800.00" y="1600.00" type="priority"/>
    <node id="1/3" x="1900.00" y="1600.00" type="priority"/>
    <node id="1/4" x="2000.00" y="1600.00" type="priority"/>
    <node id="1/5" x="2100.00" y="1600.00" type="priority"/>
    <node id="1/6" x="2200.00" y="1600.00" type="priority"/>
    <node id="1/7" x="2300.00" y="1600.00" type="priority"/>
    <node id="1/8" x="2400.00" y="1600.00" type="priority"/>
    <node id="1/9" x="2500.00" y="1600.00" type="priority"/>
    <node id="10/1" x="1507.61" y="1561.73" type="priority"/>
    <node id="10/10" x="676.12" y="1217.32" type="priority"/>
    <node id="10/11" x="583.73" y="1179.05" type="priority"/>
    <node id="10/12" x="491.34" y="1140.78" type="priority"/>
    <node id="10/13" x="398.96" y="1102.51" type="priority"/>
    <node id="10/14" x="306.57" y="1064.24" type="priority"/>
    <node id="10/15" x="214.18" y="1025.97" type="priority"/>
    <node id="10/16" x="121.79" y="987.71" type="priority"/>
    <node id="10/2" x="1415.22" y="1523.46" type="priority"/>
    <node id="10/3" x="1322.84" y="1485.19" type="priority"/>
    <node id="10/4" x="1230.45" y="1446.93" type="priority"/>
    <node id="10/5" x="1138.06" y="1408.66" type="priority"/>
    <node id="10/6" x="1045.67" y="1370.39" type="priority"/>
    <node id="10/7" x="953.28" y="1332.12" type="priority"/>
    <node id="10/8" x="860.90" y="1293.85" type="priority"/>
    <node id="10/9" x="768.51" y="1255.58" type="priority"/>
    <node id="11/1" x="1529.29" y="1529.29" type="priority"/>
    <node id="11/10" x="892.89" y="892.89" type="priority"/>
    <node id="11/11" x="822.18" y="822.18" type="priority"/>
    <node id="11/12" x="751.47" y="751.47" type="priority"/>
    <node id="11/13" x="680.76" y="680.76" type="priority"/>
    <node id="11/14" x="610.05" y="610.05" type="priority"/>
    <node id="11/15" x="539.34" y="539.34" type="priority"/>
    <node id="11/16" x="468.63" y="468.63" type="priority"/>
    <node id="11/2" x="1458.58" y="1458.58" type="priority"/>
    <node id="11/3" x="1387.87" y="1387.87" type="priority"/>
    <node id="11/4" x="1317.16" y="1317.16" type="priority"/>
    <node id="11/5" x="1246.45" y="1246.45" type="priority"/>
    <node id="11/6" x="1175.74" y="1175.74" type="priority"/>
    <node id="11/7" x="1105.03" y="1105.03" type="priority"/>
    <node id="11/8" x="1034.31" y="1034.31" type="priority"/>
    <node id="11/9" x="963.60" y="963.60" type="priority"/>
    <node id="12/1" x="1561.73" y="1507.61" type="priority"/>
    <node id="12/10" x="1217.32" y="676.12" type="priority"/>
    <node id="12/11" x="1179.05" y="583.73" type="priority"/>
    <node id="12/12" x="1140.78" y="491.34" type="priority"/>
    <node id="12/13" x="1102.51" y="398.96" type="priority"/>
    <node id="12/14" x="1064.24" y="306.57" type="priority"/>
    <node id="12/15" x="1025.97" y="214.18" type="priority"/>
    <node id="12/16" x="987.71" y="121.79" type="priority"/>
    <node id="12/2" x="1523.46" y="1415.22" type="priority"/>
    <node id="12/3" x="1485.19" y="1322.84" type="priority"/>
    <node id="12/4" x="1446.93" y="1230.45" type="priority"/>
    <node id="12/5" x="1408.66" y="1138.06" type="priority"/>
    <node id="12/6" x="1370.39" y="1045.67" type="priority"/>
    <node id="12/7" x="1332.12" y="953.28" type="priority"/>
    <node id="12/8" x="1293.85" y="860.90" type="priority"/>
    <node id="12/9" x="1255.58" y="768.51" type="priority"/>
    <node id="13/1" x="1600.00" y="1500.00" type="priority"/>
    <node id="13/10" x="1600.00" y="600.00" type="priority"/>
    <node id="13/11" x="1600.00" y="500.00" type="priority"/>
    <node id="13/12" x="1600.00" y="400.00" type="priority"/>
    <node id="13/13" x="1600.00" y="300.00" type="priority"/>
    <node id="13/14" x="1600.00" y="200.00" type="priority"/>
    <node id="13/15" x="1600.00" y="100.00" type="priority"/>
    <node id="13/16" x="1600.00" y="0.00" type="priority"/>
    <node id="13/2" x="1600.00" y="1400.00" type="priority"/>
    <node id="13/3" x="1600.00" y="1300.00" type="priority"/>
    <node id="13/4" x="1600.00" y="1200.00" type="priority"/>
    <node id="13/5" x="1600.00" y="1100.00" type="priority"/>
    <node id="13/6" x="1600.00" y="1000.00" type="priority"/>
    <node id="13/7" x="1600.00" y="900.00" type="priority"/>
    <node id="13/8" x="1600.00" y="800.00" type="priority"/>
    <node id="13/9" x="1600.00" y="700.00" type="priority"/>
    <node id="14/1" x="1638.27" y="1507.61" type="priority"/>
    <node id="14/10" x="1982.68" y="676.12" type="priority"/>
    <node id="14/11" x="2020.95" y="583.73" type="priority"/>
    <node id="14/12" x="2059.22" y="491.34" type="priority"/>
    <node id="14/13" x="2097.49" y="398.96" type="priority"/>
    <node id="14/14" x="2135.76" y="306.57" type="priority"/>
    <node id="14/15" x="2174.03" y="214.18" type="priority"/>
    <node id="14/16" x="2212.29" y="121.79" type="priority"/>
    <node id="14/2" x="1676.54" y="1415.22" type="priority"/>
    <node id="14/3" x="1714.81" y="1322.84" type="priority"/>
    <node id="14/4" x="1753.07" y="1230.45" type="priority"/>
    <node id="14/5" x="1791.34" y="1138.06" type="priority"/>
    <node id="14/6" x="1829.61" y="1045.67" type="priority"/>
    <node id="14/7" x="1867.88" y="953.28" type="priority"/>
    <node id="14/8" x="1906.15" y="860.90" type="priority"/>
    <node id="14/9" x="1944.42" y="768.51" type="priority"/>
    <node id="15/1" x="1670.71" y="1529.29" type="priority"/>
    <node id="15/10" x="2307.11" y="892.89" type="priority"/>
    <node id="15/11" x="2377.82" y="822.18" type="priority"/>
    <node id="15/12" x="2448.53" y="751.47" type="priority"/>
    <node id="15/13" x="2519.24" y="680.76" type="priority"/>
    <node id="15/14" x="2589.95" y="610.05" type="priority"/>
    <node id="15/15" x="2660.66" y="539.34" type="priority"/>
    <node id="15/16" x="2731.37" y="468.63" type="priority"/>
    <node id="15/2" x="1741.42" y="1458.58" type="priority"/>
    <node id="15/3" x="1812.13" y="1387.87" type="priority"/>
    <node id="15/4" x="1882.84" y="1317.16" type="priority"/>
    <node id="15/5" x="1953.55" y="1246.45" type="priority"/>
    <node id="15/6" x="2024.26" y="1175.74" type="priority"/>
    <node id="15/7" x="2094.97" y="1105.03" type="priority"/>
    <node id="15/8" x="2165.69" y="1034.31" type="priority"/>
    <node id="15/9" x="2236.40" y="963.60" type="priority"/>
    <node id="16/1" x="1692.39" y="1561.73" type="priority"/>
    <node id="16/10" x="2523.88" y="1217.32" type="priority"/>
    <node id="16/11" x="2616.27" y="1179.05" type="priority"/>
    <node id="16/12" x="2708.66" y="1140.78" type="priority"/>
    <node id="16/13" x="2801.04" y="1102.51" type="priority"/>
    <node id="16/14" x="2893.43" y="1064.24" type="priority"/>
    <node id="16/15" x="2985.82" y="1025.97" type="priority"/>
    <node id="16/16" x="3078.21" y="987.71" type="priority"/>
    <node id="16/2" x="1784.78" y="1523.46" type="priority"/>
    <node id="16/3" x="1877.16" y="1485.19" type="priority"/>
    <node id="16/4" x="1969.55" y="1446.93" type="priority"/>
    <node id="16/5" x="2061.94" y="1408.66" type="priority"/>
    <node id="16/6" x="2154.33" y="1370.39" type="priority"/>
    <node id="16/7" x="2246.72" y="1332.12" type="priority"/>
    <node id="16/8" x="2339.10" y="1293.85" type="priority"/>
    <node id="16/9" x="2431.49" y="1255.58" type="priority"/>
    <node id="2/1" x="1692.39" y="1638.27" type="priority"/>
    <node id="2/10" x="2523.88" y="1982.68" type="priority"/>
    <node id="2/11" x="2616.27" y="2020.95" type="priority"/>
    <node id="2/12" x="2708.66" y="2059.22" type="priority"/>
    <node id="2/13" x="2801.04" y="2097.49" type="priority"/>
    <node id="2/14" x="2893.43" y="2135.76" type="priority"/>
    <node id="2/15" x="2985.82" y="2174.03" type="priority"/>
    <node id="2/16" x="3078.21" y="2212.29" type="priority"/>
    <node id="2/2" x="1784.78" y="1676.54" type="priority"/>
    <node id="2/3" x="1877.16" y="1714.81" type="priority"/>
    <node id="2/4" x="1969.55" y="1753.07" type="priority"/>
    <node id="2/5" x="2061.94" y="1791.34" type="priority"/>
    <node id="2/6" x="2154.33" y="1829.61" type="priority"/>
    <node id="2/7" x="2246.72" y="1867.88" type="priority"/>
    <node id="2/8" x="2339.10" y="1906.15" type="priority"/>
    <node id="2/9" x="2431.49" y="1944.42" type="priority"/>
    <node id="3/1" x="1670.71" y="1670.71" type="priority"/>
    <node id="3/10" x="2307.11" y="2307.11" type="priority"/>
    <node id="3/11" x="2377.82" y="2377.82" type="priority"/>
    <node id="3/12" x="2448.53" y="2448.53" type="priority"/>
    <node id="3/13" x="2519.24" y="2519.24" type="priority"/>
    <node id="3/14" x="2589.95" y="2589.95" type="priority"/>
    <node id="3/15" x="2660.66" y="2660.66" type="priority"/>
    <node id="3/16" x="2731.37" y="2731.37" type="priority"/>
    <node id="3/2" x="1741.42" y="1741.42" type="priority"/>
    <node id="3/3" x="1812.13" y="1812.13" type="priority"/>
    <node id="3/4" x="1882.84" y="1882.84" type="priority"/>
    <node id="3/5" x="1953.55" y="1953.55" type="priority"/>
    <node id="3/6" x="2024.26" y="2024.26" type="priority"/>
    <node id="3/7" x="2094.97" y="2094.97" type="priority"/>
    <node id="3/8" x="2165.69" y="2165.69" type="priority"/>
    <node id="3/9" x="2236.40" y="2236.40" type="priority"/>
    <node id="4/1" x="1638.27" y="1692.39" type="priority"/>
    <node id="4/10" x="1982.68" y="2523.88" type="priority"/>
    <node id="4/11" x="2020.95" y="2616.27" type="priority"/>
    <node id="4/12" x="2059.22" y="2708.66" type="priority"/>
    <node id="4/13" x="2097.49" y="2801.04" type="priority"/>
    <node id="4/14" x="2135.76" y="2893.43" type="priority"/>
    <node id="4/15" x="2174.03" y="2985.82" type="priority"/>
    <node id="4/16" x="2212.29" y="3078.21" type="priority"/>
    <node id="4/2" x="1676.54" y="1784.78" type="priority"/>
    <node id="4/3" x="1714.81" y="1877.16" type="priority"/>
    <node id="4/4" x="1753.07" y="1969.55" type="priority"/>
    <node id="4/5" x="1791.34" y="2061.94" type="priority"/>
    <node id="4/6" x="1829.61" y="2154.33" type="priority"/>
    <node id="4/7" x="1867.88" y="2246.72" type="priority"/>
    <node id="4/8" x="1906.15" y="2339.10" type="priority"/>
    <node id="4/9" x="1944.42" y="2431.49" type="priority"/>
    <node id="5/1" x="1600.00" y="1700.00" type="priority"/>
    <node id="5/10" x="1600.00" y="2600.00" type="priority"/>
    <node id="5/11" x="1600.00" y="2700.00" type="priority"/>
    <node id="5/12" x="1600.00" y="2800.00" type="priority"/>
    <node id="5/13" x="1600.00" y="2900.00" type="priority"/>
    <node id="5/14" x="1600.00" y="3000.00" type="priority"/>
    <node id="5/15" x="1600.00" y="3100.00" type="priority"/>
    <node id="5/16" x="1600.00" y="3200.00" type="priority"/>
    <node id="5/2" x="1600.00" y="1800.00" type="priority"/>
    <node id="5/3" x="1600.00" y="1900.00" type="priority"/>
    <node id="5/4" x="1600.00" y="2000.00" type="priority"/>
    <node id="5/5" x="1600.00" y="2100.00" type="priority"/>
    <node id="5/6" x="1600.00" y="2200.00" type="priority"/>
    <node id="5/7" x="1600.00" y="2300.00" type="priority"/>
    <node id="5/8" x="1600.00" y="2400.00" type="priority"/>
    <node id="5/9" x="1600.00" y="2500.00" type="priority"/>
    <node id="6/1" x="1561.73" y="1692.39" type="priority"/>
    <node id="6/10" x="1217.32" y="2523.88" type="priority"/>
    <node id="6/11" x="1179.05" y="2616.27" type="priority"/>
    <node id="6/12" x="1140.78" y="2708.66" type="priority"/>
    <node id="6/13" x="1102.51" y="2801.04" type="priority"/>
    <node id="6/14" x="1064.24" y="2893.43" type="priority"/>
    <node id="6/15" x="1025.97" y="2985.82" type="priority"/>
    <node id="6/16" x="987.71" y="3078.21" type="priority"/>
    <node id="6/2" x="1523.46" y="1784.78" type="priority"/>
    <node id="6/3" x="1485.19" y="1877.16" type="priority"/>
    <node id="6/4" x="1446.93" y="1969.55" type="priority"/>
    <node id="6/5" x="1408.66" y="2061.94" type="priority"/>
    <node id="6/6" x="1370.39" y="2154.33" type="priority"/>
    <node id="6/7" x="1332.12" y="2246.72" type="priority"/>
    <node id="6/8" x="1293.85" y="2339.10" type="priority"/>
    <node id="6/9" x="1255.58" y="2431.49" type="priority"/>
    <node id="7/1" x="1529.29" y="1670.71" type="priority"/>
    <node id="7/10" x="892.89" y="2307.11" type="priority"/>
    <node id="7/11" x="822.18" y="2377.82" type="priority"/>
    <node id="7/12" x="751.47" y="2448.53" type="priority"/>
    <node id="7/13" x="680.76" y="2519.24" type="priority"/>
    <node id="7/14" x="610.05" y="2589.95" type="priority"/>
    <node id="7/15" x="539.34" y="2660.66" type="priority"/>
    <node id="7/16" x="468.63" y="2731.37" type="priority"/>
    <node id="7/2" x="1458.58" y="1741.42" type="priority"/>
    <node id="7/3" x="1387.87" y="1812.13" type="priority"/>
    <node id="7/4" x="1317.16" y="1882.84" type="priority"/>
    <node id="7/5" x="1246.45" y="1953.55" type="priority"/>
    <node id="7/6" x="1175.74" y="2024.26" type="priority"/>
    <node id="7/7" x="1105.03" y="2094.97" type="priority"/>
    <node id="7/8" x="1034.31" y="2165.69" type="priority"/>
    <node id="7/9" x="963.60" y="2236.40" type="priority"/>
    <node id="8/1" x="1507.61" y="1638.27" type="priority"/>
    <node id="8/10" x="676.12" y="1982.68" type="priority"/>
    <node id="8/11" x="583.73" y="2020.95" type="priority"/>
    <node id="8/12" x="491.34" y="2059.22" type="priority"/>
    <node id="8/13" x="398.96" y="2097.49" type="priority"/>
    <node id="8/14" x="306.57" y="2135.76" type="priority"/>
    <node id="8/15" x="214.18" y="2174.03" type="priority"/>
    <node id="8/16" x="121.79" y="2212.29" type="priority"/>
    <node id="8/2" x="1415.22" y="1676.54" type="priority"/>
    <node id="8/3" x="1322.84" y="1714.81" type="priority"/>
    <node id="8/4" x="1230.45" y="1753.07" type="priority"/>
    <node id="8/5" x="1138.06" y="1791.34" type="priority"/>
    <node id="8/6" x="1045.67" y="1829.61" type="priority"/>
    <node id="8/7" x="953.28" y="1867.88" type="priority"/>
    <node id="8/8" x="860.90" y="1906.15" type="priority"/>
    <node id="8/9" x="768.51" y="1944.42" type="priority"/>
    <node id="9/1" x="1500.00" y="1600.00" type="priority"/>
    <node id="9/10" x="600.00" y="1600.00" type="priority"/>
    <node id="9/11" x="500.00" y="1600.00" type="priority"/>
    <node id="9/12" x="400.00" y="1600.00" type="priority"/>
    <node id="9/13" x="300.00" y="1600.00" type="priority"/>
    <node id="9/14" x="200.00" y="1600.00" type="priority"/>
    <node id="9/15" x="100.00" y="1600.00" type="priority"/>
    <node id="9/16" x="0.00" y="1600.00" type="priority"/>
    <node id="9/2" x="1400.00" y="1600.00" type="priority"/>
    <node id="9/3" x="1300.00" y="1600.00" type="priority"/>
    <node id="9/4" x="1200.00" y="1600.00" type="priority"/>
    <node id="9/5" x="1100.00" y="1600.00" type="priority"/>
    <node id="9/6" x="1000.00" y="1600.00" type="priority"/>
    <node id="9/7" x="900.00" y="1600.00" type="priority"/>
    <node id="9/8" x="800.00" y="1600.00" type="priority"/>
    <node id="9/9" x="700.00" y="1600.00" type="priority"/>
</nodes>
