<?xml version="1.0" encoding="UTF-8"?>

<!-- generated on Tue Nov  8 11:18:31 2016 by SUMO netgenerate Version 0.27.1
<?xml version="1.0" encoding="UTF-8"?>

<configuration xmlns:xsi="http://www.w3.org/2001/XMLSchema-instance" xsi:noNamespaceSchemaLocation="http://sumo.dlr.de/xsd/netgenerateConfiguration.xsd">

    <grid_network>
        <grid value="true"/>
        <grid.number value="3"/>
        <grid.length value="100"/>
        <grid.attach-length value="30"/>
    </grid_network>

    <output>
        <output-file value="grid3_Bastra_timeALL_fulltraffic.net.xml"/>
        <plain-output-prefix value="grid3_Bastra_timeALL_fulltraffic"/>
    </output>

    <building_defaults>
        <default.lanenumber value="1"/>
        <default.speed value="13.9"/>
        <default.priority value="-1"/>
    </building_defaults>

    <report>
        <verbose value="true"/>
    </report>

</configuration>
-->

<edges version="0.27" xmlns:xsi="http://www.w3.org/2001/XMLSchema-instance" xsi:noNamespaceSchemaLocation="http://sumo.dlr.de/xsd/edges_file.xsd">
    <edge id="0/0to0/1" from="0/0" to="0/1" priority="-1" numLanes="1" speed="13.90"/>
    <edge id="0/0to1/0" from="0/0" to="1/0" priority="-1" numLanes="1" speed="13.90"/>
    <edge id="0/0tobottom0" from="0/0" to="bottom0" priority="-1" numLanes="1" speed="13.90"/>
    <edge id="0/0toleft0" from="0/0" to="left0" priority="-1" numLanes="1" speed="13.90"/>
    <edge id="0/1to0/0" from="0/1" to="0/0" priority="-1" numLanes="1" speed="13.90"/>
    <edge id="0/1to0/2" from="0/1" to="0/2" priority="-1" numLanes="1" speed="13.90"/>
    <edge id="0/1to1/1" from="0/1" to="1/1" priority="-1" numLanes="1" speed="13.90"/>
    <edge id="0/1toleft1" from="0/1" to="left1" priority="-1" numLanes="1" speed="13.90"/>
    <edge id="0/2to0/1" from="0/2" to="0/1" priority="-1" numLanes="1" speed="13.90"/>
    <edge id="0/2to1/2" from="0/2" to="1/2" priority="-1" numLanes="1" speed="13.90"/>
    <edge id="0/2toleft2" from="0/2" to="left2" priority="-1" numLanes="1" speed="13.90"/>
    <edge id="0/2totop0" from="0/2" to="top0" priority="-1" numLanes="1" speed="13.90"/>
    <edge id="1/0to0/0" from="1/0" to="0/0" priority="-1" numLanes="1" speed="13.90"/>
    <edge id="1/0to1/1" from="1/0" to="1/1" priority="-1" numLanes="1" speed="13.90"/>
    <edge id="1/0to2/0" from="1/0" to="2/0" priority="-1" numLanes="1" speed="13.90"/>
    <edge id="1/0tobottom1" from="1/0" to="bottom1" priority="-1" numLanes="1" speed="13.90"/>
    <edge id="1/1to0/1" from="1/1" to="0/1" priority="-1" numLanes="1" speed="13.90"/>
    <edge id="1/1to1/0" from="1/1" to="1/0" priority="-1" numLanes="1" speed="13.90"/>
    <edge id="1/1to1/2" from="1/1" to="1/2" priority="-1" numLanes="1" speed="13.90"/>
    <edge id="1/1to2/1" from="1/1" to="2/1" priority="-1" numLanes="1" speed="13.90"/>
    <edge id="1/2to0/2" from="1/2" to="0/2" priority="-1" numLanes="1" speed="13.90"/>
    <edge id="1/2to1/1" from="1/2" to="1/1" priority="-1" numLanes="1" speed="13.90"/>
    <edge id="1/2to2/2" from="1/2" to="2/2" priority="-1" numLanes="1" speed="13.90"/>
    <edge id="1/2totop1" from="1/2" to="top1" priority="-1" numLanes="1" speed="13.90"/>
    <edge id="2/0to1/0" from="2/0" to="1/0" priority="-1" numLanes="1" speed="13.90"/>
    <edge id="2/0to2/1" from="2/0" to="2/1" priority="-1" numLanes="1" speed="13.90"/>
    <edge id="2/0tobottom2" from="2/0" to="bottom2" priority="-1" numLanes="1" speed="13.90"/>
    <edge id="2/0toright0" from="2/0" to="right0" priority="-1" numLanes="1" speed="13.90"/>
    <edge id="2/1to1/1" from="2/1" to="1/1" priority="-1" numLanes="1" speed="13.90"/>
    <edge id="2/1to2/0" from="2/1" to="2/0" priority="-1" numLanes="1" speed="13.90"/>
    <edge id="2/1to2/2" from="2/1" to="2/2" priority="-1" numLanes="1" speed="13.90"/>
    <edge id="2/1toright1" from="2/1" to="right1" priority="-1" numLanes="1" speed="13.90"/>
    <edge id="2/2to1/2" from="2/2" to="1/2" priority="-1" numLanes="1" speed="13.90"/>
    <edge id="2/2to2/1" from="2/2" to="2/1" priority="-1" numLanes="1" speed="13.90"/>
    <edge id="2/2toright2" from="2/2" to="right2" priority="-1" numLanes="1" speed="13.90"/>
    <edge id="2/2totop2" from="2/2" to="top2" priority="-1" numLanes="1" speed="13.90"/>
    <edge id="bottom0to0/0" from="bottom0" to="0/0" priority="-1" numLanes="1" speed="13.90"/>
    <edge id="bottom1to1/0" from="bottom1" to="1/0" priority="-1" numLanes="1" speed="13.90"/>
    <edge id="bottom2to2/0" from="bottom2" to="2/0" priority="-1" numLanes="1" speed="13.90"/>
    <edge id="left0to0/0" from="left0" to="0/0" priority="-1" numLanes="1" speed="13.90"/>
    <edge id="left1to0/1" from="left1" to="0/1" priority="-1" numLanes="1" speed="13.90"/>
    <edge id="left2to0/2" from="left2" to="0/2" priority="-1" numLanes="1" speed="13.90"/>
    <edge id="right0to2/0" from="right0" to="2/0" priority="-1" numLanes="1" speed="13.90"/>
    <edge id="right1to2/1" from="right1" to="2/1" priority="-1" numLanes="1" speed="13.90"/>
    <edge id="right2to2/2" from="right2" to="2/2" priority="-1" numLanes="1" speed="13.90"/>
    <edge id="top0to0/2" from="top0" to="0/2" priority="-1" numLanes="1" speed="13.90"/>
    <edge id="top1to1/2" from="top1" to="1/2" priority="-1" numLanes="1" speed="13.90"/>
    <edge id="top2to2/2" from="top2" to="2/2" priority="-1" numLanes="1" speed="13.90"/>
</edges>
