<?xml version="1.0" encoding="UTF-8"?>

<!-- generated on Thu Nov  3 13:49:05 2016 by SUMO netgenerate Version 0.27.1
<?xml version="1.0" encoding="UTF-8"?>

<configuration xmlns:xsi="http://www.w3.org/2001/XMLSchema-instance" xsi:noNamespaceSchemaLocation="http://sumo.dlr.de/xsd/netgenerateConfiguration.xsd">

    <grid_network>
        <grid value="true"/>
        <grid.number value="3"/>
        <grid.length value="100"/>
        <grid.attach-length value="30"/>
    </grid_network>

    <output>
        <output-file value="grid3_Bastra_timeALL_fulltraffic.net.xml"/>
        <plain-output-prefix value="grid3_Bastra_timeALL_fulltraffic"/>
    </output>

    <building_defaults>
        <default.lanenumber value="1"/>
        <default.speed value="13.9"/>
        <default.priority value="-1"/>
    </building_defaults>

    <report>
        <verbose value="true"/>
    </report>

</configuration>
-->

<net version="0.27" xmlns:xsi="http://www.w3.org/2001/XMLSchema-instance" xsi:noNamespaceSchemaLocation="http://sumo.dlr.de/xsd/net_file.xsd">

    <location netOffset="0.00,0.00" convBoundary="0.00,0.00,260.00,260.00" origBoundary="0.00,0.00,260.00,260.00" projParameter="!"/>

    <edge id=":0/0_0" function="internal">
        <lane id=":0/0_0_0" index="0" speed="13.90" length="50" shape="28.35,34.75 28.16,33.39 27.58,32.42 26.61,31.84 25.25,31.65"/>
    </edge>
    <edge id=":0/0_1" function="internal">
        <lane id=":0/0_1_0" index="0" speed="13.90" length="50" shape="28.35,34.75 28.35,25.25"/>
    </edge>
    <edge id=":0/0_2" function="internal">
        <lane id=":0/0_2_0" index="0" speed="13.90" length="50" shape="28.35,34.75 28.75,31.95 29.95,29.95 30.05,29.89"/>
    </edge>
    <edge id=":0/0_3" function="internal">
        <lane id=":0/0_3_0" index="0" speed="13.90" length="50" shape="28.35,34.75 29.17,33.51 30.00,33.10"/>
    </edge>
    <edge id=":0/0_16" function="internal">
        <lane id=":0/0_16_0" index="0" speed="13.90" length="50" shape="30.05,29.89 31.95,28.75 34.75,28.35"/>
    </edge>
    <edge id=":0/0_17" function="internal">
        <lane id=":0/0_17_0" index="0" speed="13.90" length="50" shape="30.00,33.10 30.82,33.51 31.65,34.75"/>
    </edge>
    <edge id=":0/0_4" function="internal">
        <lane id=":0/0_4_0" index="0" speed="13.90" length="50" shape="34.75,31.65 33.39,31.84 32.42,32.42 31.84,33.39 31.65,34.75"/>
    </edge>
    <edge id=":0/0_5" function="internal">
        <lane id=":0/0_5_0" index="0" speed="13.90" length="50" shape="34.75,31.65 25.25,31.65"/>
    </edge>
    <edge id=":0/0_6" function="internal">
        <lane id=":0/0_6_0" index="0" speed="13.90" length="50" shape="34.75,31.65 31.95,31.25 29.95,30.05 28.75,28.05 28.35,25.25"/>
    </edge>
    <edge id=":0/0_7" function="internal">
        <lane id=":0/0_7_0" index="0" speed="13.90" length="50" shape="34.75,31.65 33.51,30.82 33.10,30.00 33.51,29.18 34.75,28.35"/>
    </edge>
    <edge id=":0/0_8" function="internal">
        <lane id=":0/0_8_0" index="0" speed="13.90" length="50" shape="31.65,25.25 31.84,26.61 32.42,27.57 33.39,28.16 34.75,28.35"/>
    </edge>
    <edge id=":0/0_9" function="internal">
        <lane id=":0/0_9_0" index="0" speed="13.90" length="50" shape="31.65,25.25 31.65,34.75"/>
    </edge>
    <edge id=":0/0_10" function="internal">
        <lane id=":0/0_10_0" index="0" speed="13.90" length="50" shape="31.65,25.25 31.25,28.05 30.05,30.05 29.95,30.11"/>
    </edge>
    <edge id=":0/0_11" function="internal">
        <lane id=":0/0_11_0" index="0" speed="13.90" length="50" shape="31.65,25.25 30.82,26.49 30.00,26.90"/>
    </edge>
    <edge id=":0/0_18" function="internal">
        <lane id=":0/0_18_0" index="0" speed="13.90" length="50" shape="29.95,30.11 28.05,31.25 25.25,31.65"/>
    </edge>
    <edge id=":0/0_19" function="internal">
        <lane id=":0/0_19_0" index="0" speed="13.90" length="50" shape="30.00,26.90 29.18,26.49 28.35,25.25"/>
    </edge>
    <edge id=":0/0_12" function="internal">
        <lane id=":0/0_12_0" index="0" speed="13.90" length="50" shape="25.25,28.35 26.61,28.16 27.57,27.58 28.16,26.61 28.35,25.25"/>
    </edge>
    <edge id=":0/0_13" function="internal">
        <lane id=":0/0_13_0" index="0" speed="13.90" length="50" shape="25.25,28.35 34.75,28.35"/>
    </edge>
    <edge id=":0/0_14" function="internal">
        <lane id=":0/0_14_0" index="0" speed="13.90" length="50" shape="25.25,28.35 28.05,28.75 30.05,29.95 31.25,31.95 31.65,34.75"/>
    </edge>
    <edge id=":0/0_15" function="internal">
        <lane id=":0/0_15_0" index="0" speed="13.90" length="50" shape="25.25,28.35 26.49,29.17 26.90,30.00 26.49,30.82 25.25,31.65"/>
    </edge>
    <edge id=":0/1_0" function="internal">
        <lane id=":0/1_0_0" index="0" speed="13.90" length="50" shape="28.35,134.75 28.16,133.39 27.58,132.43 26.61,131.84 25.25,131.65"/>
    </edge>
    <edge id=":0/1_1" function="internal">
        <lane id=":0/1_1_0" index="0" speed="13.90" length="50" shape="28.35,134.75 28.35,125.25"/>
    </edge>
    <edge id=":0/1_2" function="internal">
        <lane id=":0/1_2_0" index="0" speed="13.90" length="50" shape="28.35,134.75 28.75,131.95 29.95,129.95 30.05,129.89"/>
    </edge>
    <edge id=":0/1_3" function="internal">
        <lane id=":0/1_3_0" index="0" speed="13.90" length="50" shape="28.35,134.75 29.17,133.51 30.00,133.10"/>
    </edge>
    <edge id=":0/1_16" function="internal">
        <lane id=":0/1_16_0" index="0" speed="13.90" length="50" shape="30.05,129.89 31.95,128.75 34.75,128.35"/>
    </edge>
    <edge id=":0/1_17" function="internal">
        <lane id=":0/1_17_0" index="0" speed="13.90" length="50" shape="30.00,133.10 30.82,133.51 31.65,134.75"/>
    </edge>
    <edge id=":0/1_4" function="internal">
        <lane id=":0/1_4_0" index="0" speed="13.90" length="50" shape="34.75,131.65 33.39,131.84 32.43,132.43 31.84,133.39 31.65,134.75"/>
    </edge>
    <edge id=":0/1_5" function="internal">
        <lane id=":0/1_5_0" index="0" speed="13.90" length="50" shape="34.75,131.65 25.25,131.65"/>
    </edge>
    <edge id=":0/1_6" function="internal">
        <lane id=":0/1_6_0" index="0" speed="13.90" length="50" shape="34.75,131.65 31.95,131.25 29.95,130.05 28.75,128.05 28.35,125.25"/>
    </edge>
    <edge id=":0/1_7" function="internal">
        <lane id=":0/1_7_0" index="0" speed="13.90" length="50" shape="34.75,131.65 33.51,130.83 33.10,130.00 33.51,129.17 34.75,128.35"/>
    </edge>
    <edge id=":0/1_8" function="internal">
        <lane id=":0/1_8_0" index="0" speed="13.90" length="50" shape="31.65,125.25 31.84,126.61 32.42,127.57 33.39,128.16 34.75,128.35"/>
    </edge>
    <edge id=":0/1_9" function="internal">
        <lane id=":0/1_9_0" index="0" speed="13.90" length="50" shape="31.65,125.25 31.65,134.75"/>
    </edge>
    <edge id=":0/1_10" function="internal">
        <lane id=":0/1_10_0" index="0" speed="13.90" length="50" shape="31.65,125.25 31.25,128.05 30.05,130.05 29.95,130.11"/>
    </edge>
    <edge id=":0/1_11" function="internal">
        <lane id=":0/1_11_0" index="0" speed="13.90" length="50" shape="31.65,125.25 30.82,126.49 30.00,126.90"/>
    </edge>
    <edge id=":0/1_18" function="internal">
        <lane id=":0/1_18_0" index="0" speed="13.90" length="50" shape="29.95,130.11 28.05,131.25 25.25,131.65"/>
    </edge>
    <edge id=":0/1_19" function="internal">
        <lane id=":0/1_19_0" index="0" speed="13.90" length="50" shape="30.00,126.90 29.18,126.49 28.35,125.25"/>
    </edge>
    <edge id=":0/1_12" function="internal">
        <lane id=":0/1_12_0" index="0" speed="13.90" length="50" shape="25.25,128.35 26.61,128.16 27.57,127.57 28.16,126.61 28.35,125.25"/>
    </edge>
    <edge id=":0/1_13" function="internal">
        <lane id=":0/1_13_0" index="0" speed="13.90" length="50" shape="25.25,128.35 34.75,128.35"/>
    </edge>
    <edge id=":0/1_14" function="internal">
        <lane id=":0/1_14_0" index="0" speed="13.90" length="50" shape="25.25,128.35 28.05,128.75 30.05,129.95 31.25,131.95 31.65,134.75"/>
    </edge>
    <edge id=":0/1_15" function="internal">
        <lane id=":0/1_15_0" index="0" speed="13.90" length="50" shape="25.25,128.35 26.49,129.17 26.90,130.00 26.49,130.83 25.25,131.65"/>
    </edge>
    <edge id=":0/2_0" function="internal">
        <lane id=":0/2_0_0" index="0" speed="13.90" length="50" shape="28.35,234.75 28.16,233.39 27.58,232.42 26.61,231.84 25.25,231.65"/>
    </edge>
    <edge id=":0/2_1" function="internal">
        <lane id=":0/2_1_0" index="0" speed="13.90" length="50" shape="28.35,234.75 28.35,225.25"/>
    </edge>
    <edge id=":0/2_2" function="internal">
        <lane id=":0/2_2_0" index="0" speed="13.90" length="50" shape="28.35,234.75 28.75,231.95 29.95,229.95 30.05,229.89"/>
    </edge>
    <edge id=":0/2_3" function="internal">
        <lane id=":0/2_3_0" index="0" speed="13.90" length="50" shape="28.35,234.75 29.17,233.51 30.00,233.10"/>
    </edge>
    <edge id=":0/2_16" function="internal">
        <lane id=":0/2_16_0" index="0" speed="13.90" length="50" shape="30.05,229.89 31.95,228.75 34.75,228.35"/>
    </edge>
    <edge id=":0/2_17" function="internal">
        <lane id=":0/2_17_0" index="0" speed="13.90" length="50" shape="30.00,233.10 30.82,233.51 31.65,234.75"/>
    </edge>
    <edge id=":0/2_4" function="internal">
        <lane id=":0/2_4_0" index="0" speed="13.90" length="50" shape="34.75,231.65 33.39,231.84 32.42,232.43 31.84,233.39 31.65,234.75"/>
    </edge>
    <edge id=":0/2_5" function="internal">
        <lane id=":0/2_5_0" index="0" speed="13.90" length="50" shape="34.75,231.65 25.25,231.65"/>
    </edge>
    <edge id=":0/2_6" function="internal">
        <lane id=":0/2_6_0" index="0" speed="13.90" length="50" shape="34.75,231.65 31.95,231.25 29.95,230.05 28.75,228.05 28.35,225.25"/>
    </edge>
    <edge id=":0/2_7" function="internal">
        <lane id=":0/2_7_0" index="0" speed="13.90" length="50" shape="34.75,231.65 33.51,230.82 33.10,230.00 33.51,229.18 34.75,228.35"/>
    </edge>
    <edge id=":0/2_8" function="internal">
        <lane id=":0/2_8_0" index="0" speed="13.90" length="50" shape="31.65,225.25 31.84,226.61 32.42,227.58 33.39,228.16 34.75,228.35"/>
    </edge>
    <edge id=":0/2_9" function="internal">
        <lane id=":0/2_9_0" index="0" speed="13.90" length="50" shape="31.65,225.25 31.65,234.75"/>
    </edge>
    <edge id=":0/2_10" function="internal">
        <lane id=":0/2_10_0" index="0" speed="13.90" length="50" shape="31.65,225.25 31.25,228.05 30.05,230.05 29.95,230.11"/>
    </edge>
    <edge id=":0/2_11" function="internal">
        <lane id=":0/2_11_0" index="0" speed="13.90" length="50" shape="31.65,225.25 30.82,226.49 30.00,226.90"/>
    </edge>
    <edge id=":0/2_18" function="internal">
        <lane id=":0/2_18_0" index="0" speed="13.90" length="50" shape="29.95,230.11 28.05,231.25 25.25,231.65"/>
    </edge>
    <edge id=":0/2_19" function="internal">
        <lane id=":0/2_19_0" index="0" speed="13.90" length="50" shape="30.00,226.90 29.18,226.49 28.35,225.25"/>
    </edge>
    <edge id=":0/2_12" function="internal">
        <lane id=":0/2_12_0" index="0" speed="13.90" length="50" shape="25.25,228.35 26.61,228.16 27.57,227.57 28.16,226.61 28.35,225.25"/>
    </edge>
    <edge id=":0/2_13" function="internal">
        <lane id=":0/2_13_0" index="0" speed="13.90" length="50" shape="25.25,228.35 34.75,228.35"/>
    </edge>
    <edge id=":0/2_14" function="internal">
        <lane id=":0/2_14_0" index="0" speed="13.90" length="50" shape="25.25,228.35 28.05,228.75 30.05,229.95 31.25,231.95 31.65,234.75"/>
    </edge>
    <edge id=":0/2_15" function="internal">
        <lane id=":0/2_15_0" index="0" speed="13.90" length="50" shape="25.25,228.35 26.49,229.18 26.90,230.00 26.49,230.82 25.25,231.65"/>
    </edge>
    <edge id=":1/0_0" function="internal">
        <lane id=":1/0_0_0" index="0" speed="13.90" length="50" shape="128.35,34.75 128.16,33.39 127.57,32.43 126.61,31.84 125.25,31.65"/>
    </edge>
    <edge id=":1/0_1" function="internal">
        <lane id=":1/0_1_0" index="0" speed="13.90" length="50" shape="128.35,34.75 128.35,25.25"/>
    </edge>
    <edge id=":1/0_2" function="internal">
        <lane id=":1/0_2_0" index="0" speed="13.90" length="50" shape="128.35,34.75 128.75,31.95 129.95,29.95 130.05,29.89"/>
    </edge>
    <edge id=":1/0_3" function="internal">
        <lane id=":1/0_3_0" index="0" speed="13.90" length="50" shape="128.35,34.75 129.17,33.51 130.00,33.10"/>
    </edge>
    <edge id=":1/0_16" function="internal">
        <lane id=":1/0_16_0" index="0" speed="13.90" length="50" shape="130.05,29.89 131.95,28.75 134.75,28.35"/>
    </edge>
    <edge id=":1/0_17" function="internal">
        <lane id=":1/0_17_0" index="0" speed="13.90" length="50" shape="130.00,33.10 130.83,33.51 131.65,34.75"/>
    </edge>
    <edge id=":1/0_4" function="internal">
        <lane id=":1/0_4_0" index="0" speed="13.90" length="50" shape="134.75,31.65 133.39,31.84 132.43,32.42 131.84,33.39 131.65,34.75"/>
    </edge>
    <edge id=":1/0_5" function="internal">
        <lane id=":1/0_5_0" index="0" speed="13.90" length="50" shape="134.75,31.65 125.25,31.65"/>
    </edge>
    <edge id=":1/0_6" function="internal">
        <lane id=":1/0_6_0" index="0" speed="13.90" length="50" shape="134.75,31.65 131.95,31.25 129.95,30.05 128.75,28.05 128.35,25.25"/>
    </edge>
    <edge id=":1/0_7" function="internal">
        <lane id=":1/0_7_0" index="0" speed="13.90" length="50" shape="134.75,31.65 133.51,30.82 133.10,30.00 133.51,29.18 134.75,28.35"/>
    </edge>
    <edge id=":1/0_8" function="internal">
        <lane id=":1/0_8_0" index="0" speed="13.90" length="50" shape="131.65,25.25 131.84,26.61 132.43,27.57 133.39,28.16 134.75,28.35"/>
    </edge>
    <edge id=":1/0_9" function="internal">
        <lane id=":1/0_9_0" index="0" speed="13.90" length="50" shape="131.65,25.25 131.65,34.75"/>
    </edge>
    <edge id=":1/0_10" function="internal">
        <lane id=":1/0_10_0" index="0" speed="13.90" length="50" shape="131.65,25.25 131.25,28.05 130.05,30.05 129.95,30.11"/>
    </edge>
    <edge id=":1/0_11" function="internal">
        <lane id=":1/0_11_0" index="0" speed="13.90" length="50" shape="131.65,25.25 130.83,26.49 130.00,26.90"/>
    </edge>
    <edge id=":1/0_18" function="internal">
        <lane id=":1/0_18_0" index="0" speed="13.90" length="50" shape="129.95,30.11 128.05,31.25 125.25,31.65"/>
    </edge>
    <edge id=":1/0_19" function="internal">
        <lane id=":1/0_19_0" index="0" speed="13.90" length="50" shape="130.00,26.90 129.17,26.49 128.35,25.25"/>
    </edge>
    <edge id=":1/0_12" function="internal">
        <lane id=":1/0_12_0" index="0" speed="13.90" length="50" shape="125.25,28.35 126.61,28.16 127.57,27.58 128.16,26.61 128.35,25.25"/>
    </edge>
    <edge id=":1/0_13" function="internal">
        <lane id=":1/0_13_0" index="0" speed="13.90" length="50" shape="125.25,28.35 134.75,28.35"/>
    </edge>
    <edge id=":1/0_14" function="internal">
        <lane id=":1/0_14_0" index="0" speed="13.90" length="50" shape="125.25,28.35 128.05,28.75 130.05,29.95 131.25,31.95 131.65,34.75"/>
    </edge>
    <edge id=":1/0_15" function="internal">
        <lane id=":1/0_15_0" index="0" speed="13.90" length="50" shape="125.25,28.35 126.49,29.17 126.90,30.00 126.49,30.82 125.25,31.65"/>
    </edge>
    <edge id=":1/1_0" function="internal">
        <lane id=":1/1_0_0" index="0" speed="13.90" length="50" shape="128.35,134.75 128.16,133.39 127.57,132.43 126.61,131.84 125.25,131.65"/>
    </edge>
    <edge id=":1/1_1" function="internal">
        <lane id=":1/1_1_0" index="0" speed="13.90" length="50" shape="128.35,134.75 128.35,125.25"/>
    </edge>
    <edge id=":1/1_2" function="internal">
        <lane id=":1/1_2_0" index="0" speed="13.90" length="50" shape="128.35,134.75 128.75,131.95 129.95,129.95 130.05,129.89"/>
    </edge>
    <edge id=":1/1_3" function="internal">
        <lane id=":1/1_3_0" index="0" speed="13.90" length="50" shape="128.35,134.75 129.17,133.51 130.00,133.10"/>
    </edge>
    <edge id=":1/1_16" function="internal">
        <lane id=":1/1_16_0" index="0" speed="13.90" length="50" shape="130.05,129.89 131.95,128.75 134.75,128.35"/>
    </edge>
    <edge id=":1/1_17" function="internal">
        <lane id=":1/1_17_0" index="0" speed="13.90" length="50" shape="130.00,133.10 130.83,133.51 131.65,134.75"/>
    </edge>
    <edge id=":1/1_4" function="internal">
        <lane id=":1/1_4_0" index="0" speed="13.90" length="50" shape="134.75,131.65 133.39,131.84 132.43,132.43 131.84,133.39 131.65,134.75"/>
    </edge>
    <edge id=":1/1_5" function="internal">
        <lane id=":1/1_5_0" index="0" speed="13.90" length="50" shape="134.75,131.65 125.25,131.65"/>
    </edge>
    <edge id=":1/1_6" function="internal">
        <lane id=":1/1_6_0" index="0" speed="13.90" length="50" shape="134.75,131.65 131.95,131.25 129.95,130.05 128.75,128.05 128.35,125.25"/>
    </edge>
    <edge id=":1/1_7" function="internal">
        <lane id=":1/1_7_0" index="0" speed="13.90" length="50" shape="134.75,131.65 133.51,130.83 133.10,130.00 133.51,129.17 134.75,128.35"/>
    </edge>
    <edge id=":1/1_8" function="internal">
        <lane id=":1/1_8_0" index="0" speed="13.90" length="50" shape="131.65,125.25 131.84,126.61 132.43,127.57 133.39,128.16 134.75,128.35"/>
    </edge>
    <edge id=":1/1_9" function="internal">
        <lane id=":1/1_9_0" index="0" speed="13.90" length="50" shape="131.65,125.25 131.65,134.75"/>
    </edge>
    <edge id=":1/1_10" function="internal">
        <lane id=":1/1_10_0" index="0" speed="13.90" length="50" shape="131.65,125.25 131.25,128.05 130.05,130.05 129.95,130.11"/>
    </edge>
    <edge id=":1/1_11" function="internal">
        <lane id=":1/1_11_0" index="0" speed="13.90" length="50" shape="131.65,125.25 130.83,126.49 130.00,126.90"/>
    </edge>
    <edge id=":1/1_18" function="internal">
        <lane id=":1/1_18_0" index="0" speed="13.90" length="50" shape="129.95,130.11 128.05,131.25 125.25,131.65"/>
    </edge>
    <edge id=":1/1_19" function="internal">
        <lane id=":1/1_19_0" index="0" speed="13.90" length="50" shape="130.00,126.90 129.17,126.49 128.35,125.25"/>
    </edge>
    <edge id=":1/1_12" function="internal">
        <lane id=":1/1_12_0" index="0" speed="13.90" length="50" shape="125.25,128.35 126.61,128.16 127.57,127.57 128.16,126.61 128.35,125.25"/>
    </edge>
    <edge id=":1/1_13" function="internal">
        <lane id=":1/1_13_0" index="0" speed="13.90" length="50" shape="125.25,128.35 134.75,128.35"/>
    </edge>
    <edge id=":1/1_14" function="internal">
        <lane id=":1/1_14_0" index="0" speed="13.90" length="50" shape="125.25,128.35 128.05,128.75 130.05,129.95 131.25,131.95 131.65,134.75"/>
    </edge>
    <edge id=":1/1_15" function="internal">
        <lane id=":1/1_15_0" index="0" speed="13.90" length="50" shape="125.25,128.35 126.49,129.17 126.90,130.00 126.49,130.83 125.25,131.65"/>
    </edge>
    <edge id=":1/2_0" function="internal">
        <lane id=":1/2_0_0" index="0" speed="13.90" length="50" shape="128.35,234.75 128.16,233.39 127.57,232.42 126.61,231.84 125.25,231.65"/>
    </edge>
    <edge id=":1/2_1" function="internal">
        <lane id=":1/2_1_0" index="0" speed="13.90" length="50" shape="128.35,234.75 128.35,225.25"/>
    </edge>
    <edge id=":1/2_2" function="internal">
        <lane id=":1/2_2_0" index="0" speed="13.90" length="50" shape="128.35,234.75 128.75,231.95 129.95,229.95 130.05,229.89"/>
    </edge>
    <edge id=":1/2_3" function="internal">
        <lane id=":1/2_3_0" index="0" speed="13.90" length="50" shape="128.35,234.75 129.17,233.51 130.00,233.10"/>
    </edge>
    <edge id=":1/2_16" function="internal">
        <lane id=":1/2_16_0" index="0" speed="13.90" length="50" shape="130.05,229.89 131.95,228.75 134.75,228.35"/>
    </edge>
    <edge id=":1/2_17" function="internal">
        <lane id=":1/2_17_0" index="0" speed="13.90" length="50" shape="130.00,233.10 130.83,233.51 131.65,234.75"/>
    </edge>
    <edge id=":1/2_4" function="internal">
        <lane id=":1/2_4_0" index="0" speed="13.90" length="50" shape="134.75,231.65 133.39,231.84 132.43,232.43 131.84,233.39 131.65,234.75"/>
    </edge>
    <edge id=":1/2_5" function="internal">
        <lane id=":1/2_5_0" index="0" speed="13.90" length="50" shape="134.75,231.65 125.25,231.65"/>
    </edge>
    <edge id=":1/2_6" function="internal">
        <lane id=":1/2_6_0" index="0" speed="13.90" length="50" shape="134.75,231.65 131.95,231.25 129.95,230.05 128.75,228.05 128.35,225.25"/>
    </edge>
    <edge id=":1/2_7" function="internal">
        <lane id=":1/2_7_0" index="0" speed="13.90" length="50" shape="134.75,231.65 133.51,230.82 133.10,230.00 133.51,229.18 134.75,228.35"/>
    </edge>
    <edge id=":1/2_8" function="internal">
        <lane id=":1/2_8_0" index="0" speed="13.90" length="50" shape="131.65,225.25 131.84,226.61 132.43,227.58 133.39,228.16 134.75,228.35"/>
    </edge>
    <edge id=":1/2_9" function="internal">
        <lane id=":1/2_9_0" index="0" speed="13.90" length="50" shape="131.65,225.25 131.65,234.75"/>
    </edge>
    <edge id=":1/2_10" function="internal">
        <lane id=":1/2_10_0" index="0" speed="13.90" length="50" shape="131.65,225.25 131.25,228.05 130.05,230.05 129.95,230.11"/>
    </edge>
    <edge id=":1/2_11" function="internal">
        <lane id=":1/2_11_0" index="0" speed="13.90" length="50" shape="131.65,225.25 130.83,226.49 130.00,226.90"/>
    </edge>
    <edge id=":1/2_18" function="internal">
        <lane id=":1/2_18_0" index="0" speed="13.90" length="50" shape="129.95,230.11 128.05,231.25 125.25,231.65"/>
    </edge>
    <edge id=":1/2_19" function="internal">
        <lane id=":1/2_19_0" index="0" speed="13.90" length="50" shape="130.00,226.90 129.17,226.49 128.35,225.25"/>
    </edge>
    <edge id=":1/2_12" function="internal">
        <lane id=":1/2_12_0" index="0" speed="13.90" length="50" shape="125.25,228.35 126.61,228.16 127.57,227.57 128.16,226.61 128.35,225.25"/>
    </edge>
    <edge id=":1/2_13" function="internal">
        <lane id=":1/2_13_0" index="0" speed="13.90" length="50" shape="125.25,228.35 134.75,228.35"/>
    </edge>
    <edge id=":1/2_14" function="internal">
        <lane id=":1/2_14_0" index="0" speed="13.90" length="50" shape="125.25,228.35 128.05,228.75 130.05,229.95 131.25,231.95 131.65,234.75"/>
    </edge>
    <edge id=":1/2_15" function="internal">
        <lane id=":1/2_15_0" index="0" speed="13.90" length="50" shape="125.25,228.35 126.49,229.18 126.90,230.00 126.49,230.82 125.25,231.65"/>
    </edge>
    <edge id=":2/0_0" function="internal">
        <lane id=":2/0_0_0" index="0" speed="13.90" length="50" shape="228.35,34.75 228.16,33.39 227.57,32.43 226.61,31.84 225.25,31.65"/>
    </edge>
    <edge id=":2/0_1" function="internal">
        <lane id=":2/0_1_0" index="0" speed="13.90" length="50" shape="228.35,34.75 228.35,25.25"/>
    </edge>
    <edge id=":2/0_2" function="internal">
        <lane id=":2/0_2_0" index="0" speed="13.90" length="50" shape="228.35,34.75 228.75,31.95 229.95,29.95 230.05,29.89"/>
    </edge>
    <edge id=":2/0_3" function="internal">
        <lane id=":2/0_3_0" index="0" speed="13.90" length="50" shape="228.35,34.75 229.18,33.51 230.00,33.10"/>
    </edge>
    <edge id=":2/0_16" function="internal">
        <lane id=":2/0_16_0" index="0" speed="13.90" length="50" shape="230.05,29.89 231.95,28.75 234.75,28.35"/>
    </edge>
    <edge id=":2/0_17" function="internal">
        <lane id=":2/0_17_0" index="0" speed="13.90" length="50" shape="230.00,33.10 230.82,33.51 231.65,34.75"/>
    </edge>
    <edge id=":2/0_4" function="internal">
        <lane id=":2/0_4_0" index="0" speed="13.90" length="50" shape="234.75,31.65 233.39,31.84 232.42,32.42 231.84,33.39 231.65,34.75"/>
    </edge>
    <edge id=":2/0_5" function="internal">
        <lane id=":2/0_5_0" index="0" speed="13.90" length="50" shape="234.75,31.65 225.25,31.65"/>
    </edge>
    <edge id=":2/0_6" function="internal">
        <lane id=":2/0_6_0" index="0" speed="13.90" length="50" shape="234.75,31.65 231.95,31.25 229.95,30.05 228.75,28.05 228.35,25.25"/>
    </edge>
    <edge id=":2/0_7" function="internal">
        <lane id=":2/0_7_0" index="0" speed="13.90" length="50" shape="234.75,31.65 233.51,30.82 233.10,30.00 233.51,29.18 234.75,28.35"/>
    </edge>
    <edge id=":2/0_8" function="internal">
        <lane id=":2/0_8_0" index="0" speed="13.90" length="50" shape="231.65,25.25 231.84,26.61 232.43,27.57 233.39,28.16 234.75,28.35"/>
    </edge>
    <edge id=":2/0_9" function="internal">
        <lane id=":2/0_9_0" index="0" speed="13.90" length="50" shape="231.65,25.25 231.65,34.75"/>
    </edge>
    <edge id=":2/0_10" function="internal">
        <lane id=":2/0_10_0" index="0" speed="13.90" length="50" shape="231.65,25.25 231.25,28.05 230.05,30.05 229.95,30.11"/>
    </edge>
    <edge id=":2/0_11" function="internal">
        <lane id=":2/0_11_0" index="0" speed="13.90" length="50" shape="231.65,25.25 230.82,26.49 230.00,26.90"/>
    </edge>
    <edge id=":2/0_18" function="internal">
        <lane id=":2/0_18_0" index="0" speed="13.90" length="50" shape="229.95,30.11 228.05,31.25 225.25,31.65"/>
    </edge>
    <edge id=":2/0_19" function="internal">
        <lane id=":2/0_19_0" index="0" speed="13.90" length="50" shape="230.00,26.90 229.18,26.49 228.35,25.25"/>
    </edge>
    <edge id=":2/0_12" function="internal">
        <lane id=":2/0_12_0" index="0" speed="13.90" length="50" shape="225.25,28.35 226.61,28.16 227.58,27.58 228.16,26.61 228.35,25.25"/>
    </edge>
    <edge id=":2/0_13" function="internal">
        <lane id=":2/0_13_0" index="0" speed="13.90" length="50" shape="225.25,28.35 234.75,28.35"/>
    </edge>
    <edge id=":2/0_14" function="internal">
        <lane id=":2/0_14_0" index="0" speed="13.90" length="50" shape="225.25,28.35 228.05,28.75 230.05,29.95 231.25,31.95 231.65,34.75"/>
    </edge>
    <edge id=":2/0_15" function="internal">
        <lane id=":2/0_15_0" index="0" speed="13.90" length="50" shape="225.25,28.35 226.49,29.17 226.90,30.00 226.49,30.82 225.25,31.65"/>
    </edge>
    <edge id=":2/1_0" function="internal">
        <lane id=":2/1_0_0" index="0" speed="13.90" length="50" shape="228.35,134.75 228.16,133.39 227.57,132.43 226.61,131.84 225.25,131.65"/>
    </edge>
    <edge id=":2/1_1" function="internal">
        <lane id=":2/1_1_0" index="0" speed="13.90" length="50" shape="228.35,134.75 228.35,125.25"/>
    </edge>
    <edge id=":2/1_2" function="internal">
        <lane id=":2/1_2_0" index="0" speed="13.90" length="50" shape="228.35,134.75 228.75,131.95 229.95,129.95 230.05,129.89"/>
    </edge>
    <edge id=":2/1_3" function="internal">
        <lane id=":2/1_3_0" index="0" speed="13.90" length="50" shape="228.35,134.75 229.18,133.51 230.00,133.10"/>
    </edge>
    <edge id=":2/1_16" function="internal">
        <lane id=":2/1_16_0" index="0" speed="13.90" length="50" shape="230.05,129.89 231.95,128.75 234.75,128.35"/>
    </edge>
    <edge id=":2/1_17" function="internal">
        <lane id=":2/1_17_0" index="0" speed="13.90" length="50" shape="230.00,133.10 230.82,133.51 231.65,134.75"/>
    </edge>
    <edge id=":2/1_4" function="internal">
        <lane id=":2/1_4_0" index="0" speed="13.90" length="50" shape="234.75,131.65 233.39,131.84 232.42,132.43 231.84,133.39 231.65,134.75"/>
    </edge>
    <edge id=":2/1_5" function="internal">
        <lane id=":2/1_5_0" index="0" speed="13.90" length="50" shape="234.75,131.65 225.25,131.65"/>
    </edge>
    <edge id=":2/1_6" function="internal">
        <lane id=":2/1_6_0" index="0" speed="13.90" length="50" shape="234.75,131.65 231.95,131.25 229.95,130.05 228.75,128.05 228.35,125.25"/>
    </edge>
    <edge id=":2/1_7" function="internal">
        <lane id=":2/1_7_0" index="0" speed="13.90" length="50" shape="234.75,131.65 233.51,130.83 233.10,130.00 233.51,129.17 234.75,128.35"/>
    </edge>
    <edge id=":2/1_8" function="internal">
        <lane id=":2/1_8_0" index="0" speed="13.90" length="50" shape="231.65,125.25 231.84,126.61 232.43,127.57 233.39,128.16 234.75,128.35"/>
    </edge>
    <edge id=":2/1_9" function="internal">
        <lane id=":2/1_9_0" index="0" speed="13.90" length="50" shape="231.65,125.25 231.65,134.75"/>
    </edge>
    <edge id=":2/1_10" function="internal">
        <lane id=":2/1_10_0" index="0" speed="13.90" length="50" shape="231.65,125.25 231.25,128.05 230.05,130.05 229.95,130.11"/>
    </edge>
    <edge id=":2/1_11" function="internal">
        <lane id=":2/1_11_0" index="0" speed="13.90" length="50" shape="231.65,125.25 230.82,126.49 230.00,126.90"/>
    </edge>
    <edge id=":2/1_18" function="internal">
        <lane id=":2/1_18_0" index="0" speed="13.90" length="50" shape="229.95,130.11 228.05,131.25 225.25,131.65"/>
    </edge>
    <edge id=":2/1_19" function="internal">
        <lane id=":2/1_19_0" index="0" speed="13.90" length="50" shape="230.00,126.90 229.18,126.49 228.35,125.25"/>
    </edge>
    <edge id=":2/1_12" function="internal">
        <lane id=":2/1_12_0" index="0" speed="13.90" length="50" shape="225.25,128.35 226.61,128.16 227.58,127.57 228.16,126.61 228.35,125.25"/>
    </edge>
    <edge id=":2/1_13" function="internal">
        <lane id=":2/1_13_0" index="0" speed="13.90" length="50" shape="225.25,128.35 234.75,128.35"/>
    </edge>
    <edge id=":2/1_14" function="internal">
        <lane id=":2/1_14_0" index="0" speed="13.90" length="50" shape="225.25,128.35 228.05,128.75 230.05,129.95 231.25,131.95 231.65,134.75"/>
    </edge>
    <edge id=":2/1_15" function="internal">
        <lane id=":2/1_15_0" index="0" speed="13.90" length="50" shape="225.25,128.35 226.49,129.17 226.90,130.00 226.49,130.83 225.25,131.65"/>
    </edge>
    <edge id=":2/2_0" function="internal">