<!-- Generated by mutraff_tazcalc. alvaro.paricio@uah.es -->
  -->
<tazs>
  <!-- name="Taz_odonell" -->
  <taz id="1000" edges="293279892 14567208#0 6601794#1 6601794#0 425034965#0 425034965#1 425034964 185181407#0 4078616#0 4078616#1 -4812341 -44572472#2 229826287 -44572472#0 -44572472#1 185181414#1 4688562#2 4688562#1 4688562#0 44572474#0 -44572475#1 -44572475#0 226458104 44572472#0 -4688562#2 -4688562#1 -4688562#0 -44572474#0 -44572474#1 4078618#0 4078618#1 44572472#2 44572474#1 6601787#1 6601787#0 -226458104 310280048 4812341 44572475#1 44572475#0 44572477#2 -310280048 4078600#1 4078600#0 4078600#2 185181407#1 4387423#0 185181407#2 44572472#1 185181414#0 292948168#1 292948168#0 292948168#2 428833182#3 428833182#2" />
  <!-- name="Taz_manuel_becerra" -->
  <taz id="1001" edges="-43405589#0 208134359#1 208134359#0 43682140 4261170 136091482 248729535#1 62695113 248729535#3 248729535#2 248729535#4 131739079#0 131739079#1 85817351 77091180 85817354 43405589#0 133150561#17 133150561#16 133150561#18 43682134 -4680951 62694156 8029421#0 8029421#1 43405590#1 43405590#0 43682138 4526343 31784952 31784951 4680951 -85817351 -85817354 44335075 77091189#1 77091189#0 243238208 43405596#1" />
  <!-- name="Taz_diego_de_leon" -->
  <taz id="1002" edges="131451842#1 355261553 320844399#2 320844399#3 320844399#0 320844399#1 44536106 44536103 14573574#1 14573574#0 67605423#0 67605423#1 261406865#0 6601805 -44536103 307264977 320844396 198753639#1 320844401 262609373 131451851 262609370#2 262609370#1 262609370#0 15218992 -14577982#0 -320844404#3 -320844404#2 14577912#0 140358116#1 62695885 320844404#3 320844404#2 417988253#8 417988253#7 398749582#4 261406866 320844397 14577982#0 131451842#0 -307592940" />
  <!-- name="Taz_colon" -->
  <taz id="1003" edges="335735810#1 335735810#0 131450470 417038678 4261174 164369269 164369266 164369267#6 7726313#2 334731365#1 334731365#0 418834902 436761533#0 436761533#1 334731364#0 334731364#1 334731364#2 334731364#3 334731366 252387427#0 112538817 44737268#0 44737268#1 44737268#2 164369267#5 131451859 43759863#6 43759863#5 136124312#2 136124312#1 136124312#0 43759864#1 43759864#0 112538811#0 112538811#1 7972776#1 7972776#0 7972776#3 7972776#2 44508936 44508935 44508934" />
  <!-- name="Taz_alcala" -->
  <taz id="1004" edges="7972761#1 4353020#2 7972761#2 43407378#0 112538800#10 4353019#3 4353019#2 4353019#1 4353019#0 4353019#6 4353019#5 4353019#4 43407378#1 7972761#0 29975021#4 29975021#5 7972771#1 43405578 37352456 321307754#0 321307754#1 43405576#1 43405576#0 322773314 109462896#6 461144181 112538800#8 14567386#5 14567386#4 112538800#9 14567386#1 14567386#0 14567386#3 14567386#2 7972765" />
  <!-- name="taz_ruben_dario" -->
  <taz id="1005" edges="164369276#0 164369276#1 164369276#2 24536104#1 136124308#2 136124308#3 136124308#0 136124308#1 -462175851 44336478#2 44336478#3 7971510 44336478#4 30812600 30812601 106343217#0 -121797007 53321067#2 30812599#3 30812599#0 30812599#1 121797007 136124311#0 462175851 -462175857#0 14369724#1 14369724#0 30812599#2 252387372#1 164369278#0 -462175857#1 123625796#0 462175857#1 462175857#0 106343217#1 14567951#4 367214521#11 106343219#2" />
  <!-- name="Taz_castellana_norte" -->
  <taz id="1006" edges="252386898#1 43759950#1 43759950#0 164369273#1 164369273#0 -23689617 -262302254 252387150#0 43798346#1 43798346#0 44335072 262302249#3 164298253#0 164298253#1 45656944 -7971535#1 -7971535#0 23689617 11342060#0 11342060#1 7971519 11341864#1 11341864#0 131553936#0 131553936#1 131553934#0 131553934#1 24253745 261560488 262302248 53321077#1 53321077#0 252386898#2 262302254 14486476#1 14486476#0 121477437 23689618 131497921#1 131497921#0 131553944#1 131553944#0 44335071#0 44335071#1 7971535#1 7971535#0 164369279#1 164369279#0 23689697#1 23689697#0 32840922#1 32840922#0 7971518#0 7971518#1 11341864#2 371491052 24253753 266731687 7971522 371495230 -7971519 43798345" />
  <!-- name="Taz_avenida_america" -->
  <taz id="1007" edges="301549846#2 301549846#0 301549846#1 45314241#1 45314241#3 45314241#2 192162053#0 407979312 293478805#0 4487907#3 4487907#2 4487907#1 4487907#0 315551674#2 30385990 30385992 137206574 341911662#3 341911662#2 11342111 341911662#0 15090741#2 15090741#3 15090741#0 15090741#1 263173484 293478806#1 293478806#0 293478806#3 293478806#2 23713173#0 44335073#1 293478805#2 293478805#3 24564971 293478805#1 293478805#4 14567503#2 14567503#3 44167914 14567503#1 14567503#6 14567503#7 14567503#4 14567503#5 45314185#2 14567503#8 14567503#9 462173077#1 462173077#0 238871448 15090775#0 23713175#2 23713175#0 23713175#1 23573143#1 23573143#3 45314185#1 24447170#0 23573143#4 24447170#2 320362511#9 320362511#8 320362511#7 462173102 45314189#3 238871454#0 15090775#1 24233750 44335073#0 23713173#1 23713173#2 429691792 428829747#0 367214632#4 429691794 367214632#5 417988259#1 417988259#2 428829746#0 428829746#1 44167871 429691805 429691803 417988261#0 417988261#1 44335074 417988255#6 417988262#7 417988262#6 417988262#5 417988262#4 14574453#0 14574453#1 14574453#2 15219001 355812629#11 355812629#10 417988262#9 417988262#8 23573143#2 262302249#0 24447170#1 427191931 32840924 14578013#5 187906384 133979685#1 133979685#0 133979685#2 320703044#1 320703044#0 14567503#10 14567503#11 14567503#12 14567503#13 14567503#14 14567503#15 71270059#1 71270059#2 71270059#3 315551674#1 315551674#0 252386899 137206570#1 137206570#3 137206570#2 226241438 315551675#0 315551675#1 315551675#2 367214632#2 367214632#3 417988262#2 109462880#0 109462880#1 32840925#2 102494324#3 71270051 341911662#1 30385988 15218987 71270052 32840925#0 32840925#1 14486405 462173103 338670816 14484044 14567301#0 32825184 417988262#3 301549845#1 301549845#0 301549845#2 45314189#2 417988262#1 45314189#0 45314189#1 263173483 417988262#0 420655422 263173480 14484074 102494324#1 102494324#0 137216217#0 102494324#2" />
</tazs>
