<?xml version="1.0" encoding="UTF-8"?>

<!-- generated on Fri Oct 21 16:13:09 2016 by SUMO netgenerate Version 0.27.1
<?xml version="1.0" encoding="UTF-8"?>

<configuration xmlns:xsi="http://www.w3.org/2001/XMLSchema-instance" xsi:noNamespaceSchemaLocation="http://sumo.dlr.de/xsd/netgenerateConfiguration.xsd">

    <spider_network>
        <spider value="true"/>
        <spider.arm-number value="16"/>
        <spider.circle-number value="16"/>
        <spider.space-radius value="100"/>
        <spider.omit-center value="true"/>
    </spider_network>

    <output>
        <output-file value="radial_Bastra_logit50_nomaps_randomtraffic.net.xml"/>
        <plain-output-prefix value="radial_Bastra_logit50_nomaps_randomtraffic"/>
    </output>

    <building_defaults>
        <default.lanenumber value="1"/>
        <default.priority value="-1"/>
    </building_defaults>

    <report>
        <verbose value="true"/>
    </report>

</configuration>
-->

<tlLogics version="0.27" xmlns:xsi="http://www.w3.org/2001/XMLSchema-instance" xsi:noNamespaceSchemaLocation="http://sumo.dlr.de/xsd/tllogic_file.xsd">
</tlLogics>
